<?xml version="1.0" encoding="utf-8"?>
<!DOCTYPE plans SYSTEM "http://www.matsim.org/files/dtd/plans_v4.dtd">

<plans>

	<person id="pessoa0" >
		<plan>
			<act end_time="18:9:26" x="-4159801.20349685" y="-573975.5748153061" type="home"/>
			<leg mode="pt"/>
			<act end_time="18:9:46" x="-4159910.89245" y="-573822.3259649995" type="home"/>
			<leg mode="pt"/>
			<act end_time="18:16:48" x="-4160030.0763699203" y="-573616.2334057895" type="home"/>
			<leg mode="pt"/>
			<act end_time="18:17:37" x="-4159760.033823" y="-573307.8689350012" type="home"/>
			<leg mode="pt"/>
			<act end_time="18:18:5" x="-4159588.125155" y="-573156.9356620014" type="home"/>
			<leg mode="pt"/>
			<act x="-4159384.193552" y="-572978.234251" type="home"/>
		</plan>
	</person>

	<person id="pessoa1" >
		<plan>
			<act end_time="18:25:29" x="-4157333.584344435" y="-573017.3276399571" type="home"/>
			<leg mode="pt"/>
			<act x="-4156968.790373106" y="-571241.3843687957" type="home"/>
		</plan>
	</person>

	<person id="pessoa2" >
		<plan>
			<act end_time="18:21:40" x="-4158680.65938" y="-576034.8196360001" type="home"/>
			<leg mode="pt"/>
			<act end_time="18:26:47" x="-4158147.3170300005" y="-576789.3367080005" type="home"/>
			<leg mode="pt"/>
			<act end_time="18:14:11" x="-4157583.146073" y="-577442.783725001" type="home"/>
			<leg mode="pt"/>
			<act end_time="18:17:0" x="-4157667.765455797" y="-577570.6539016827" type="home"/>
			<leg mode="pt"/>
			<act end_time="18:28:55" x="-4157667.271591" y="-577764.8045650016" type="home"/>
			<leg mode="pt"/>
			<act x="-4157503.051413" y="-577861.6944700002" type="home"/>
		</plan>
	</person>

	<person id="pessoa3" >
		<plan>
			<act end_time="18:0:48" x="-4156860.4279990005" y="-575481.397636001" type="home"/>
			<leg mode="pt"/>
			<act end_time="18:38:31" x="-4156531.390479" y="-575703.5427490019" type="home"/>
			<leg mode="pt"/>
			<act x="-4156256.0977440006" y="-575817.6011280011" type="home"/>
		</plan>
	</person>

	<person id="pessoa4" >
		<plan>
			<act end_time="18:5:45" x="-4158523.9784020004" y="-577914.0956360018" type="home"/>
			<leg mode="pt"/>
			<act x="-4157725.569755" y="-578398.0972880007" type="home"/>
		</plan>
	</person>

	<person id="pessoa5" >
		<plan>
			<act end_time="18:42:19" x="-4156131.738282" y="-576362.3642450005" type="home"/>
			<leg mode="pt"/>
			<act x="-4155965.875902" y="-576085.7278910016" type="home"/>
		</plan>
	</person>

	<person id="pessoa6" >
		<plan>
			<act end_time="18:3:8" x="-4159507.134749001" y="-577325.5155890009" type="home"/>
			<leg mode="pt"/>
			<act x="-4159304.0242470005" y="-577445.6202550022" type="home"/>
		</plan>
	</person>

	<person id="pessoa7" >
		<plan>
			<act end_time="18:11:56" x="-4156499.133441449" y="-575715.3047397825" type="home"/>
			<leg mode="pt"/>
			<act x="-4156847.34080865" y="-575483.6326198839" type="home"/>
		</plan>
	</person>

	<person id="pessoa8" >
		<plan>
			<act end_time="18:10:38" x="-4155558.311279" y="-582633.7835500005" type="home"/>
			<leg mode="pt"/>
			<act end_time="18:9:0" x="-4155376.026881001" y="-582727.2397609999" type="home"/>
			<leg mode="pt"/>
			<act x="-4155419.619874" y="-582864.5875460013" type="home"/>
		</plan>
	</person>

	<person id="pessoa9" >
		<plan>
			<act end_time="18:29:46" x="-4158521.6972696725" y="-573479.5388456486" type="home"/>
			<leg mode="pt"/>
			<act end_time="18:32:44" x="-4158423.068200829" y="-573263.3764387827" type="home"/>
			<leg mode="pt"/>
			<act end_time="18:21:59" x="-4158308.4091253118" y="-573018.5570994515" type="home"/>
			<leg mode="pt"/>
			<act x="-4158197.646231972" y="-572853.1279267293" type="home"/>
		</plan>
	</person>

	<person id="pessoa10" >
		<plan>
			<act end_time="18:9:46" x="-4159910.89245" y="-573822.3259649995" type="home"/>
			<leg mode="pt"/>
			<act end_time="18:10:12" x="-4160030.0763699203" y="-573616.2334057895" type="home"/>
			<leg mode="pt"/>
			<act end_time="18:17:25" x="-4159828.8107305667" y="-573369.1103985489" type="home"/>
			<leg mode="pt"/>
			<act end_time="18:17:50" x="-4159681.581365" y="-573240.6879530008" type="home"/>
			<leg mode="pt"/>
			<act end_time="18:18:23" x="-4159462.8699459997" y="-573044.6687770017" type="home"/>
			<leg mode="pt"/>
			<act x="-4159290.5880499994" y="-572885.8230780018" type="home"/>
		</plan>
	</person>

	<person id="pessoa11" >
		<plan>
			<act end_time="18:16:32" x="-4161515.920753" y="-578885.234052" type="home"/>
			<leg mode="pt"/>
			<act end_time="18:8:7" x="-4161516.96579" y="-579016.7594850006" type="home"/>
			<leg mode="pt"/>
			<act x="-4160260.6190353534" y="-578872.8588998164" type="home"/>
		</plan>
	</person>

	<person id="pessoa12" >
		<plan>
			<act end_time="18:0:0" x="-4160643.2241252107" y="-576411.0633567754" type="home"/>
			<leg mode="pt"/>
			<act end_time="18:7:56" x="-4160428.633884" y="-576587.1965980012" type="home"/>
			<leg mode="pt"/>
			<act x="-4160047.219571503" y="-576894.1874455808" type="home"/>
		</plan>
	</person>

	<person id="pessoa13" >
		<plan>
			<act end_time="18:4:47" x="-4159724.5025480003" y="-577135.4680560008" type="home"/>
			<leg mode="pt"/>
			<act end_time="18:11:9" x="-4159971.856276236" y="-576935.5442638587" type="home"/>
			<leg mode="pt"/>
			<act x="-4160376.9479032326" y="-576605.1374935984" type="home"/>
		</plan>
	</person>

	<person id="pessoa14" >
		<plan>
			<act end_time="18:32:36" x="-4157205.2329715514" y="-579013.5879012579" type="home"/>
			<leg mode="pt"/>
			<act end_time="18:35:9" x="-4157205.2329715514" y="-579013.5879012579" type="home"/>
			<leg mode="pt"/>
			<act end_time="18:0:0" x="-4157205.2329715514" y="-579013.5879012579" type="home"/>
			<leg mode="pt"/>
			<act end_time="18:0:18" x="-4157240.521250132" y="-578854.0801504268" type="home"/>
			<leg mode="pt"/>
			<act end_time="18:1:22" x="-4156911.1869630003" y="-578550.6727620006" type="home"/>
			<leg mode="pt"/>
			<act end_time="18:1:45" x="-4156698.7292884416" y="-578587.9366270738" type="home"/>
			<leg mode="pt"/>
			<act end_time="18:20:43" x="-4156396.132768" y="-578387.049748001" type="home"/>
			<leg mode="pt"/>
			<act end_time="18:29:49" x="-4156718.526836" y="-578076.5989660008" type="home"/>
			<leg mode="pt"/>
			<act end_time="18:17:54" x="-4157137.5868720007" y="-578160.2019660018" type="home"/>
			<leg mode="pt"/>
			<act end_time="18:20:50" x="-4157185.1954632085" y="-578432.0067221237" type="home"/>
			<leg mode="pt"/>
			<act end_time="18:23:39" x="-4157267.5718863956" y="-578558.8743964208" type="home"/>
			<leg mode="pt"/>
			<act end_time="18:24:51" x="-4157052.1177340006" y="-578695.0372270006" type="home"/>
			<leg mode="pt"/>
			<act end_time="18:32:24" x="-4157167.594377" y="-579124.9955120005" type="home"/>
			<leg mode="pt"/>
			<act end_time="18:11:22" x="-4157253.2128059994" y="-579415.6652270008" type="home"/>
			<leg mode="pt"/>
			<act end_time="18:38:47" x="-4157049.81983" y="-579098.3294750014" type="home"/>
			<leg mode="pt"/>
			<act end_time="18:0:0" x="-4157205.2329715514" y="-579013.5879012579" type="home"/>
			<leg mode="pt"/>
			<act end_time="18:1:8" x="-4157040.480125177" y="-578523.329069063" type="home"/>
			<leg mode="pt"/>
			<act end_time="18:23:38" x="-4156698.7292884416" y="-578587.9366270738" type="home"/>
			<leg mode="pt"/>
			<act end_time="18:2:8" x="-4156520.2841446996" y="-578472.8055528352" type="home"/>
			<leg mode="pt"/>
			<act end_time="18:52:4" x="-4156396.132768" y="-578387.049748001" type="home"/>
			<leg mode="pt"/>
			<act end_time="18:2:49" x="-4156525.2695450005" y="-578195.6585950021" type="home"/>
			<leg mode="pt"/>
			<act x="-4156718.526836" y="-578076.5989660008" type="home"/>
		</plan>
	</person>

	<person id="pessoa15" >
		<plan>
			<act end_time="18:9:47" x="-4158554.4251999645" y="-579322.097259854" type="home"/>
			<leg mode="pt"/>
			<act x="-4158517.021851059" y="-579539.9548639075" type="home"/>
		</plan>
	</person>

	<person id="pessoa16" >
		<plan>
			<act end_time="18:0:30" x="-4160428.633884" y="-576587.1965980012" type="home"/>
			<leg mode="pt"/>
			<act end_time="18:9:10" x="-4160047.219571503" y="-576894.1874455808" type="home"/>
			<leg mode="pt"/>
			<act x="-4159802.656424" y="-577098.0706420003" type="home"/>
		</plan>
	</person>

	<person id="pessoa17" >
		<plan>
			<act end_time="18:27:31" x="-4158052.040338015" y="-574379.067646042" type="home"/>
			<leg mode="pt"/>
			<act end_time="18:30:40" x="-4158345.9237937094" y="-574187.1567812066" type="home"/>
			<leg mode="pt"/>
			<act end_time="18:20:3" x="-4158637.5808595885" y="-573984.7400009872" type="home"/>
			<leg mode="pt"/>
			<act x="-4158710.717765039" y="-573867.71631653" type="home"/>
		</plan>
	</person>

	<person id="pessoa18" >
		<plan>
			<act end_time="18:9:53" x="-4154070.9213887756" y="-581290.6647409922" type="home"/>
			<leg mode="pt"/>
			<act end_time="18:10:8" x="-4153980.863920724" y="-581198.3327637753" type="home"/>
			<leg mode="pt"/>
			<act x="-4154030.4010941265" y="-581122.9917488716" type="home"/>
		</plan>
	</person>

	<person id="pessoa19" >
		<plan>
			<act end_time="18:1:35" x="-4154766.471439" y="-579877.2732180015" type="home"/>
			<leg mode="pt"/>
			<act end_time="18:2:17" x="-4155081.591045687" y="-580007.1940723808" type="home"/>
			<leg mode="pt"/>
			<act end_time="18:15:37" x="-4155090.162646478" y="-580392.9482077938" type="home"/>
			<leg mode="pt"/>
			<act end_time="18:4:3" x="-4154678.464353" y="-580677.8465850005" type="home"/>
			<leg mode="pt"/>
			<act end_time="18:4:33" x="-4154455.1249110005" y="-580832.4374889995" type="home"/>
			<leg mode="pt"/>
			<act end_time="18:5:0" x="-4154572.1691099997" y="-581057.1205510015" type="home"/>
			<leg mode="pt"/>
			<act end_time="18:12:20" x="-4154945.6699474286" y="-581391.6040754183" type="home"/>
			<leg mode="pt"/>
			<act x="-4155083.267091" y="-581508.2781670018" type="home"/>
		</plan>
	</person>

	<person id="pessoa20" >
		<plan>
			<act end_time="18:26:44" x="-4158392.3036770006" y="-578520.8145480012" type="home"/>
			<leg mode="pt"/>
			<act x="-4158205.9884209996" y="-578275.9771919996" type="home"/>
		</plan>
	</person>

	<person id="pessoa21" >
		<plan>
			<act end_time="18:12:47" x="-4159080.9663914177" y="-580680.5605360233" type="home"/>
			<leg mode="pt"/>
			<act x="-4159067.995064" y="-580992.7760990007" type="home"/>
		</plan>
	</person>

	<person id="pessoa22" >
		<plan>
			<act end_time="18:10:7" x="-4156511.8333479995" y="-576411.0331340011" type="home"/>
			<leg mode="pt"/>
			<act x="-4156406.13527" y="-576243.2299709999" type="home"/>
		</plan>
	</person>

	<person id="pessoa23" >
		<plan>
			<act end_time="18:18:55" x="-4151581.594935656" y="-580457.4457009671" type="home"/>
			<leg mode="pt"/>
			<act end_time="18:22:11" x="-4151546.863254528" y="-580540.990722059" type="home"/>
			<leg mode="pt"/>
			<act end_time="18:24:30" x="-4151614.339769" y="-580650.675610001" type="home"/>
			<leg mode="pt"/>
			<act end_time="18:27:35" x="-4151614.339769" y="-580650.675610001" type="home"/>
			<leg mode="pt"/>
			<act end_time="19:42:32" x="-4151614.339769" y="-580650.675610001" type="home"/>
			<leg mode="pt"/>
			<act x="-4151614.339769" y="-580650.675610001" type="home"/>
		</plan>
	</person>

	<person id="pessoa24" >
		<plan>
			<act end_time="18:0:0" x="-4157048.385457" y="-575810.584447001" type="home"/>
			<leg mode="pt"/>
			<act end_time="18:37:39" x="-4156860.4279990005" y="-575481.397636001" type="home"/>
			<leg mode="pt"/>
			<act x="-4156531.390479" y="-575703.5427490019" type="home"/>
		</plan>
	</person>

	<person id="pessoa25" >
		<plan>
			<act end_time="18:18:55" x="-4151581.594935656" y="-580457.4457009671" type="home"/>
			<leg mode="pt"/>
			<act end_time="18:22:26" x="-4151614.339769" y="-580650.675610001" type="home"/>
			<leg mode="pt"/>
			<act end_time="18:24:30" x="-4151614.339769" y="-580650.675610001" type="home"/>
			<leg mode="pt"/>
			<act end_time="18:27:35" x="-4151614.339769" y="-580650.675610001" type="home"/>
			<leg mode="pt"/>
			<act end_time="19:42:32" x="-4151614.339769" y="-580650.675610001" type="home"/>
			<leg mode="pt"/>
			<act x="-4151614.339769" y="-580650.675610001" type="home"/>
		</plan>
	</person>

	<person id="pessoa26" >
		<plan>
			<act end_time="18:3:21" x="-4156275.654874" y="-576027.6536640008" type="home"/>
			<leg mode="pt"/>
			<act end_time="18:11:16" x="-4156194.2293561664" y="-575880.1705346658" type="home"/>
			<leg mode="pt"/>
			<act x="-4156273.4155080006" y="-575817.3025450003" type="home"/>
		</plan>
	</person>

	<person id="pessoa27" >
		<plan>
			<act end_time="18:29:9" x="-4157877.9366544145" y="-582850.0427708835" type="home"/>
			<leg mode="pt"/>
			<act x="-4157623.794256934" y="-582907.9472256609" type="home"/>
		</plan>
	</person>

	<person id="pessoa28" >
		<plan>
			<act end_time="18:5:34" x="-4155610.712445" y="-581329.2781730017" type="home"/>
			<leg mode="pt"/>
			<act end_time="18:6:24" x="-4155412.1553200004" y="-581661.8986790014" type="home"/>
			<leg mode="pt"/>
			<act x="-4155152.83673" y="-582094.5442020011" type="home"/>
		</plan>
	</person>

	<person id="pessoa29" >
		<plan>
			<act end_time="18:17:5" x="-4158278.096008" y="-577237.8070850024" type="home"/>
			<leg mode="pt"/>
			<act x="-4158174.7119410005" y="-577347.7599580012" type="home"/>
		</plan>
	</person>

	<person id="pessoa30" >
		<plan>
			<act end_time="18:6:35" x="-4158583.368267573" y="-574324.8921734851" type="home"/>
			<leg mode="pt"/>
			<act end_time="18:6:49" x="-4158677.989834746" y="-574266.000005613" type="home"/>
			<leg mode="pt"/>
			<act end_time="18:7:3" x="-4158770.1623731228" y="-574201.0946116456" type="home"/>
			<leg mode="pt"/>
			<act x="-4158872.464985161" y="-574128.6559252895" type="home"/>
		</plan>
	</person>

	<person id="pessoa31" >
		<plan>
			<act end_time="18:23:18" x="-4157483.121055" y="-578612.7778470013" type="home"/>
			<leg mode="pt"/>
			<act end_time="18:54:42" x="-4157267.5718863956" y="-578558.8743964208" type="home"/>
			<leg mode="pt"/>
			<act end_time="18:26:50" x="-4157052.1177340006" y="-578695.0372270006" type="home"/>
			<leg mode="pt"/>
			<act x="-4156993.725939044" y="-578833.40117623" type="home"/>
		</plan>
	</person>

	<person id="pessoa32" >
		<plan>
			<act end_time="18:7:7" x="-4155996.8537990004" y="-581145.9487380006" type="home"/>
			<leg mode="pt"/>
			<act end_time="18:6:15" x="-4155795.928218107" y="-581684.3625013507" type="home"/>
			<leg mode="pt"/>
			<act x="-4155793.3678698195" y="-581825.0971318659" type="home"/>
		</plan>
	</person>

	<person id="pessoa33" >
		<plan>
			<act end_time="18:11:40" x="-4155506.95515" y="-583077.7751950009" type="home"/>
			<leg mode="pt"/>
			<act end_time="18:10:6" x="-4155368.413037" y="-583272.4507510017" type="home"/>
			<leg mode="pt"/>
			<act x="-4154783.9384940006" y="-583583.4240520007" type="home"/>
		</plan>
	</person>

	<person id="pessoa34" >
		<plan>
			<act end_time="18:18:38" x="-4158891.5330180004" y="-581252.8411450009" type="home"/>
			<leg mode="pt"/>
			<act end_time="18:19:20" x="-4158632.905440975" y="-581028.4243579654" type="home"/>
			<leg mode="pt"/>
			<act end_time="18:21:39" x="-4158487.8499619993" y="-580886.7794390005" type="home"/>
			<leg mode="pt"/>
			<act x="-4158433.955886" y="-580766.8987090002" type="home"/>
		</plan>
	</person>

	<person id="pessoa35" >
		<plan>
			<act end_time="18:30:6" x="-4156993.725939044" y="-578833.40117623" type="home"/>
			<leg mode="pt"/>
			<act end_time="18:33:50" x="-4157316.107184381" y="-579363.008384986" type="home"/>
			<leg mode="pt"/>
			<act end_time="18:23:37" x="-4157049.81983" y="-579098.3294750014" type="home"/>
			<leg mode="pt"/>
			<act end_time="18:0:0" x="-4157205.2329715514" y="-579013.5879012579" type="home"/>
			<leg mode="pt"/>
			<act end_time="18:1:7" x="-4157040.480125177" y="-578523.329069063" type="home"/>
			<leg mode="pt"/>
			<act end_time="18:20:4" x="-4156698.7292884416" y="-578587.9366270738" type="home"/>
			<leg mode="pt"/>
			<act end_time="18:29:1" x="-4156396.132768" y="-578387.049748001" type="home"/>
			<leg mode="pt"/>
			<act end_time="18:16:58" x="-4156718.526836" y="-578076.5989660008" type="home"/>
			<leg mode="pt"/>
			<act end_time="18:20:13" x="-4157137.5868720007" y="-578160.2019660018" type="home"/>
			<leg mode="pt"/>
			<act end_time="18:23:2" x="-4157059.404438611" y="-578278.8715954771" type="home"/>
			<leg mode="pt"/>
			<act end_time="18:30:42" x="-4157185.1954632085" y="-578432.0067221237" type="home"/>
			<leg mode="pt"/>
			<act end_time="18:9:14" x="-4157267.5718863956" y="-578558.8743964208" type="home"/>
			<leg mode="pt"/>
			<act end_time="18:36:19" x="-4157052.1177340006" y="-578695.0372270006" type="home"/>
			<leg mode="pt"/>
			<act end_time="18:28:19" x="-4157167.594377" y="-579124.9955120005" type="home"/>
			<leg mode="pt"/>
			<act end_time="18:53:2" x="-4157253.2128059994" y="-579415.6652270008" type="home"/>
			<leg mode="pt"/>
			<act end_time="18:26:37" x="-4157049.81983" y="-579098.3294750014" type="home"/>
			<leg mode="pt"/>
			<act end_time="18:0:0" x="-4157205.2329715514" y="-579013.5879012579" type="home"/>
			<leg mode="pt"/>
			<act end_time="18:13:2" x="-4157240.521250132" y="-578854.0801504268" type="home"/>
			<leg mode="pt"/>
			<act end_time="18:55:9" x="-4157052.1177340006" y="-578695.0372270006" type="home"/>
			<leg mode="pt"/>
			<act end_time="18:27:6" x="-4156993.725939044" y="-578833.40117623" type="home"/>
			<leg mode="pt"/>
			<act x="-4157167.594377" y="-579124.9955120005" type="home"/>
		</plan>
	</person>

	<person id="pessoa36" >
		<plan>
			<act end_time="18:10:11" x="-4154553.134499" y="-579603.4733940017" type="home"/>
			<leg mode="pt"/>
			<act end_time="18:10:25" x="-4154641.0669389996" y="-579673.3416150007" type="home"/>
			<leg mode="pt"/>
			<act end_time="18:7:9" x="-4154789.0434238827" y="-579887.8130416891" type="home"/>
			<leg mode="pt"/>
			<act end_time="18:13:11" x="-4154461.1711990004" y="-580118.527588001" type="home"/>
			<leg mode="pt"/>
			<act end_time="18:4:22" x="-4154310.6857990003" y="-580225.7185770009" type="home"/>
			<leg mode="pt"/>
			<act end_time="18:8:53" x="-4154080.478968" y="-580379.8616080016" type="home"/>
			<leg mode="pt"/>
			<act x="-4150591.40806505" y="-582640.0333288047" type="home"/>
		</plan>
	</person>

	<person id="pessoa37" >
		<plan>
			<act end_time="18:5:30" x="-4154047.5442957086" y="-581114.8316734772" type="home"/>
			<leg mode="pt"/>
			<act x="-4153978.587812001" y="-581187.8248830012" type="home"/>
		</plan>
	</person>

	<person id="pessoa38" >
		<plan>
			<act end_time="18:21:20" x="-4158806.0072491583" y="-575894.3657769792" type="home"/>
			<leg mode="pt"/>
			<act end_time="18:26:19" x="-4158280.932538" y="-576569.1323780016" type="home"/>
			<leg mode="pt"/>
			<act end_time="18:13:47" x="-4157784.912955" y="-577334.3237620005" type="home"/>
			<leg mode="pt"/>
			<act end_time="18:16:44" x="-4157583.146073" y="-577442.783725001" type="home"/>
			<leg mode="pt"/>
			<act x="-4157667.765455797" y="-577570.6539016827" type="home"/>
		</plan>
	</person>

	<person id="pessoa39" >
		<plan>
			<act end_time="18:10:11" x="-4160030.0763699203" y="-573616.2334057895" type="home"/>
			<leg mode="pt"/>
			<act end_time="18:11:2" x="-4159760.033823" y="-573307.8689350012" type="home"/>
			<leg mode="pt"/>
			<act end_time="18:17:50" x="-4159681.581365" y="-573240.6879530008" type="home"/>
			<leg mode="pt"/>
			<act end_time="18:18:23" x="-4159462.8699459997" y="-573044.6687770017" type="home"/>
			<leg mode="pt"/>
			<act end_time="18:18:51" x="-4159290.5880499994" y="-572885.8230780018" type="home"/>
			<leg mode="pt"/>
			<act x="-4159196.7386618424" y="-572798.8642016774" type="home"/>
		</plan>
	</person>

	<person id="pessoa40" >
		<plan>
			<act end_time="18:11:8" x="-4154387.6453470006" y="-580868.4166370009" type="home"/>
			<leg mode="pt"/>
			<act end_time="18:9:50" x="-4154674.060266" y="-580671.2777780009" type="home"/>
			<leg mode="pt"/>
			<act end_time="18:12:56" x="-4155104.914297" y="-580376.9504319999" type="home"/>
			<leg mode="pt"/>
			<act end_time="18:7:10" x="-4154789.0434238827" y="-579887.8130416891" type="home"/>
			<leg mode="pt"/>
			<act x="-4154310.6857990003" y="-580225.7185770009" type="home"/>
		</plan>
	</person>

	<person id="pessoa41" >
		<plan>
			<act end_time="18:15:30" x="-4152624.8910269993" y="-578210.886285001" type="home"/>
			<leg mode="pt"/>
			<act x="-4152006.2288299995" y="-577865.7253290002" type="home"/>
		</plan>
	</person>

	<person id="pessoa42" >
		<plan>
			<act end_time="18:24:24" x="-4158088.3470569993" y="-579615.7152620008" type="home"/>
			<leg mode="pt"/>
			<act x="-4157940.8474790007" y="-579707.081397" type="home"/>
		</plan>
	</person>

	<person id="pessoa43" >
		<plan>
			<act end_time="18:18:21" x="-4157492.824975001" y="-578770.7278000009" type="home"/>
			<leg mode="pt"/>
			<act end_time="18:16:35" x="-4157558.6623369996" y="-578876.1272960003" type="home"/>
			<leg mode="pt"/>
			<act end_time="18:22:52" x="-4157621.011269664" y="-578961.7226924836" type="home"/>
			<leg mode="pt"/>
			<act x="-4157834.5522359996" y="-579221.8854170012" type="home"/>
		</plan>
	</person>

	<person id="pessoa44" >
		<plan>
			<act end_time="18:7:8" x="-4158074.313696" y="-578188.4926240008" type="home"/>
			<leg mode="pt"/>
			<act end_time="18:26:55" x="-4157267.5718863956" y="-578558.8743964208" type="home"/>
			<leg mode="pt"/>
			<act end_time="18:51:22" x="-4157052.1177340006" y="-578695.0372270006" type="home"/>
			<leg mode="pt"/>
			<act end_time="18:24:25" x="-4156993.725939044" y="-578833.40117623" type="home"/>
			<leg mode="pt"/>
			<act end_time="18:14:25" x="-4157167.594377" y="-579124.9955120005" type="home"/>
			<leg mode="pt"/>
			<act end_time="18:56:37" x="-4157316.107184381" y="-579363.008384986" type="home"/>
			<leg mode="pt"/>
			<act end_time="18:28:30" x="-4157253.2128059994" y="-579415.6652270008" type="home"/>
			<leg mode="pt"/>
			<act x="-4157049.81983" y="-579098.3294750014" type="home"/>
		</plan>
	</person>

	<person id="pessoa45" >
		<plan>
			<act end_time="18:10:19" x="-4158517.021851059" y="-579539.9548639075" type="home"/>
			<leg mode="pt"/>
			<act x="-4158663.518300942" y="-579860.5387522449" type="home"/>
		</plan>
	</person>

	<person id="pessoa46" >
		<plan>
			<act end_time="18:11:29" x="-4159588.125155" y="-573156.9356620014" type="home"/>
			<leg mode="pt"/>
			<act end_time="18:12:0" x="-4159384.193552" y="-572978.234251" type="home"/>
			<leg mode="pt"/>
			<act end_time="18:19:6" x="-4159196.7386618424" y="-572798.8642016774" type="home"/>
			<leg mode="pt"/>
			<act end_time="18:22:20" x="-4159515.8682759996" y="-572756.0891370007" type="home"/>
			<leg mode="pt"/>
			<act end_time="18:0:54" x="-4159574.838249" y="-572809.3860500011" type="home"/>
			<leg mode="pt"/>
			<act end_time="18:3:56" x="-4159536.597067234" y="-573020.4795270693" type="home"/>
			<leg mode="pt"/>
			<act x="-4159627.099813249" y="-573185.6967270243" type="home"/>
		</plan>
	</person>

	<person id="pessoa47" >
		<plan>
			<act end_time="18:13:55" x="-4158812.40875" y="-573039.742172001" type="home"/>
			<leg mode="pt"/>
			<act end_time="18:20:59" x="-4158910.9408569997" y="-572865.6687829996" type="home"/>
			<leg mode="pt"/>
			<act end_time="18:2:14" x="-4159104.123503" y="-572854.0240800016" type="home"/>
			<leg mode="pt"/>
			<act x="-4159515.8682759996" y="-572756.0891370007" type="home"/>
		</plan>
	</person>

	<person id="pessoa48" >
		<plan>
			<act end_time="18:0:18" x="-4157240.521250132" y="-578854.0801504268" type="home"/>
			<leg mode="pt"/>
			<act end_time="18:1:22" x="-4156911.1869630003" y="-578550.6727620006" type="home"/>
			<leg mode="pt"/>
			<act end_time="18:2:7" x="-4156520.2841446996" y="-578472.8055528352" type="home"/>
			<leg mode="pt"/>
			<act end_time="18:2:24" x="-4156396.132768" y="-578387.049748001" type="home"/>
			<leg mode="pt"/>
			<act end_time="18:21:32" x="-4156718.526836" y="-578076.5989660008" type="home"/>
			<leg mode="pt"/>
			<act end_time="18:30:45" x="-4157137.5868720007" y="-578160.2019660018" type="home"/>
			<leg mode="pt"/>
			<act end_time="18:18:30" x="-4157185.1954632085" y="-578432.0067221237" type="home"/>
			<leg mode="pt"/>
			<act end_time="18:21:34" x="-4157052.1177340006" y="-578695.0372270006" type="home"/>
			<leg mode="pt"/>
			<act end_time="18:24:23" x="-4156993.725939044" y="-578833.40117623" type="home"/>
			<leg mode="pt"/>
			<act end_time="18:25:48" x="-4157167.594377" y="-579124.9955120005" type="home"/>
			<leg mode="pt"/>
			<act end_time="18:33:7" x="-4157253.2128059994" y="-579415.6652270008" type="home"/>
			<leg mode="pt"/>
			<act end_time="18:0:0" x="-4157205.2329715514" y="-579013.5879012579" type="home"/>
			<leg mode="pt"/>
			<act end_time="18:35:53" x="-4157240.521250132" y="-578854.0801504268" type="home"/>
			<leg mode="pt"/>
			<act end_time="18:27:39" x="-4156993.725939044" y="-578833.40117623" type="home"/>
			<leg mode="pt"/>
			<act end_time="18:52:50" x="-4157316.107184381" y="-579363.008384986" type="home"/>
			<leg mode="pt"/>
			<act end_time="18:25:49" x="-4157253.2128059994" y="-579415.6652270008" type="home"/>
			<leg mode="pt"/>
			<act end_time="18:15:56" x="-4157049.81983" y="-579098.3294750014" type="home"/>
			<leg mode="pt"/>
			<act end_time="18:0:0" x="-4157205.2329715514" y="-579013.5879012579" type="home"/>
			<leg mode="pt"/>
			<act end_time="18:26:23" x="-4157240.521250132" y="-578854.0801504268" type="home"/>
			<leg mode="pt"/>
			<act x="-4157052.1177340006" y="-578695.0372270006" type="home"/>
		</plan>
	</person>

	<person id="pessoa49" >
		<plan>
			<act end_time="18:48:10" x="-4150554.4499941072" y="-582482.417671213" type="home"/>
			<leg mode="pt"/>
			<act end_time="18:0:57" x="-4150750.9895060007" y="-582304.4474479993" type="home"/>
			<leg mode="pt"/>
			<act x="-4150801.151305" y="-582503.0045720004" type="home"/>
		</plan>
	</person>

	<person id="pessoa50" >
		<plan>
			<act end_time="18:29:46" x="-4158521.6972696725" y="-573479.5388456486" type="home"/>
			<leg mode="pt"/>
			<act end_time="18:33:13" x="-4158308.4091253118" y="-573018.5570994515" type="home"/>
			<leg mode="pt"/>
			<act end_time="18:22:32" x="-4158119.9452273985" y="-572802.3849158478" type="home"/>
			<leg mode="pt"/>
			<act x="-4158033.449983052" y="-572890.179289013" type="home"/>
		</plan>
	</person>

	<person id="pessoa51" >
		<plan>
			<act end_time="18:18:21" x="-4157492.824975001" y="-578770.7278000009" type="home"/>
			<leg mode="pt"/>
			<act end_time="18:16:48" x="-4157621.011269664" y="-578961.7226924836" type="home"/>
			<leg mode="pt"/>
			<act end_time="18:34:3" x="-4157746.2465680004" y="-579166.2744930009" type="home"/>
			<leg mode="pt"/>
			<act end_time="18:11:28" x="-4157618.751993" y="-579238.9792440002" type="home"/>
			<leg mode="pt"/>
			<act x="-4157637.189441" y="-579363.413352001" type="home"/>
		</plan>
	</person>

	<person id="pessoa52" >
		<plan>
			<act end_time="18:17:5" x="-4158278.096008" y="-577237.8070850024" type="home"/>
			<leg mode="pt"/>
			<act x="-4158104.022619" y="-577425.9138340004" type="home"/>
		</plan>
	</person>

	<person id="pessoa53" >
		<plan>
			<act end_time="18:7:56" x="-4159148.5373223294" y="-574222.4093263563" type="home"/>
			<leg mode="pt"/>
			<act end_time="18:8:12" x="-4159227.9081192645" y="-574107.3971240873" type="home"/>
			<leg mode="pt"/>
			<act end_time="18:8:29" x="-4159312.84489074" y="-573976.8042913645" type="home"/>
			<leg mode="pt"/>
			<act x="-4159460.2318965504" y="-574004.4786853797" type="home"/>
		</plan>
	</person>

	<person id="pessoa54" >
		<plan>
			<act end_time="18:4:33" x="-4154455.1249110005" y="-580832.4374889995" type="home"/>
			<leg mode="pt"/>
			<act end_time="18:18:47" x="-4154945.6699474286" y="-581391.6040754183" type="home"/>
			<leg mode="pt"/>
			<act end_time="18:9:13" x="-4155358.8878972535" y="-581670.8367892306" type="home"/>
			<leg mode="pt"/>
			<act end_time="18:7:52" x="-4155518.965325014" y="-581381.2418579877" type="home"/>
			<leg mode="pt"/>
			<act end_time="18:8:31" x="-4155694.763318" y="-581103.6993649998" type="home"/>
			<leg mode="pt"/>
			<act end_time="18:16:14" x="-4156007.752048" y="-580612.9049690004" type="home"/>
			<leg mode="pt"/>
			<act end_time="18:10:26" x="-4156168.389240001" y="-580344.7035610015" type="home"/>
			<leg mode="pt"/>
			<act end_time="18:10:55" x="-4156313.8978087693" y="-580121.2433867502" type="home"/>
			<leg mode="pt"/>
			<act end_time="18:13:48" x="-4156460.925093" y="-579868.4650440004" type="home"/>
			<leg mode="pt"/>
			<act end_time="18:16:38" x="-4156543.408410001" y="-579733.1326890003" type="home"/>
			<leg mode="pt"/>
			<act end_time="18:21:43" x="-4156812.9430859946" y="-579176.4940876625" type="home"/>
			<leg mode="pt"/>
			<act end_time="18:50:5" x="-4156871.2516019996" y="-578878.5905990016" type="home"/>
			<leg mode="pt"/>
			<act end_time="18:1:8" x="-4157040.480125177" y="-578523.329069063" type="home"/>
			<leg mode="pt"/>
			<act x="-4156911.1869630003" y="-578550.6727620006" type="home"/>
		</plan>
	</person>

	<person id="pessoa55" >
		<plan>
			<act end_time="18:9:11" x="-4158572.6815964547" y="-578645.9493463904" type="home"/>
			<leg mode="pt"/>
			<act end_time="18:8:17" x="-4158954.841408348" y="-578700.6087730137" type="home"/>
			<leg mode="pt"/>
			<act x="-4159562.089230626" y="-578559.5450631467" type="home"/>
		</plan>
	</person>

	<person id="pessoa56" >
		<plan>
			<act end_time="18:2:27" x="-4161036.547124" y="-584526.4957470008" type="home"/>
			<leg mode="pt"/>
			<act x="-4160339.6564049996" y="-583010.8927950006" type="home"/>
		</plan>
	</person>

	<person id="pessoa57" >
		<plan>
			<act end_time="18:5:50" x="-4156313.8978087693" y="-580121.2433867502" type="home"/>
			<leg mode="pt"/>