<?xml version="1.0" encoding="utf-8"?>
<!DOCTYPE facilities SYSTEM "http://www.matsim.org/files/dtd/facilities_v1.dtd">

<facilities>
	<facility id="parada_Linha9_Volta0" x="-4157205.2329715514" y="-579013.5879012579"/>
	<facility id="parada_Linha9_Volta1" x="-4157040.480125177" y="-578523.3290690613"/>
	<facility id="parada_Linha9_Volta2" x="-4156920.8116725744" y="-578539.9839529201"/>
	<facility id="parada_Linha9_Volta3" x="-4156707.634847705" y="-578589.2779610838"/>
	<facility id="parada_Linha9_Volta4" x="-4156523.9576878957" y="-578471.6877763364"/>
	<facility id="parada_Linha9_Volta5" x="-4156400.949650569" y="-578380.589051281"/>
	<facility id="parada_Linha9_Volta6" x="-4156507.259764277" y="-578212.5876619997"/>
	<facility id="parada_Linha9_Volta7" x="-4156719.8799916916" y="-578082.479076539"/>
	<facility id="parada_Linha9_Volta8" x="-4156818.9543384984" y="-578026.2552517317"/>
	<facility id="parada_Linha9_Volta9" x="-4157013.763447386" y="-577978.4147362716"/>
	<facility id="parada_Linha9_Volta10" x="-4157126.752730541" y="-578161.0583739443"/>
	<facility id="parada_Linha9_Volta11" x="-4157218.9252689183" y="-578247.4621689818"/>
	<facility id="parada_Linha9_Volta12" x="-4157528.3934533237" y="-578023.2372743305"/>
	<facility id="parada_Linha9_Volta13" x="-4158009.627612022" y="-578002.3349899478"/>
	<facility id="parada_Linha9_Volta14" x="-4158214.2328361007" y="-578267.2467527234"/>
	<facility id="parada_Linha9_Volta15" x="-4158403.0306924866" y="-578513.7161848668"/>
	<facility id="parada_Linha9_Volta16" x="-4158516.5765730953" y="-578915.3346609451"/>
	<facility id="parada_Linha9_Volta17" x="-4158555.2044364014" y="-579047.2332403001"/>
	<facility id="parada_Linha9_Volta18" x="-4158554.4251999645" y="-579322.0972598532"/>
	<facility id="parada_Linha9_Volta19" x="-4158429.0794533314" y="-579401.6839513672"/>
	<facility id="parada_Linha9_Volta20" x="-4158517.021851059" y="-579539.9548639059"/>
	<facility id="parada_Linha9_Volta21" x="-4158663.518300942" y="-579860.5387522449"/>
	<facility id="parada_Linha9_Volta22" x="-4158691.5708126226" y="-580064.2019394174"/>
	<facility id="parada_Linha9_Volta23" x="-4158819.810866016" y="-580355.5016834541"/>
	<facility id="parada_Linha9_Volta24" x="-4158981.224127667" y="-580466.0528232488"/>
	<facility id="parada_Linha9_Volta25" x="-4159080.9663914177" y="-580680.5605360218"/>
	<facility id="parada_Linha9_Volta26" x="-4159144.4185011694" y="-580836.160078866"/>
	<facility id="parada_Linha9_Volta27" x="-4159060.594924602" y="-580992.0953114013"/>
	<facility id="parada_Linha9_Volta28" x="-4159101.3378582327" y="-581088.6747258622"/>
	<facility id="parada_Linha9_Volta29" x="-4158928.124730558" y="-581179.7769573453"/>
	<facility id="parada_Linha9_Volta30" x="-4158913.2079187916" y="-581240.7316820546"/>
	<facility id="parada_Linha9_Volta31" x="-4159304.718567912" y="-581556.3713629855"/>
	<facility id="parada_Linha9_Volta32" x="-4157914.004169432" y="-582496.3571409563"/>
	<facility id="parada_Linha9_Volta33" x="-4158043.134778751" y="-582712.7713976711"/>
	<facility id="parada_Linha9_Volta34" x="-4158107.7000834118" y="-582917.560711206"/>
	<facility id="parada_Linha9_Volta35" x="-4157959.979119129" y="-583047.6782501338"/>
	<facility id="parada_Linha9_Volta36" x="-4157877.9366544145" y="-582850.0427708835"/>
	<facility id="parada_Linha9_Volta37" x="-4157623.794256934" y="-582907.9472256594"/>
	<facility id="parada_Linha9_Volta38" x="-4157438.4473047624" y="-583025.2094825705"/>
	<facility id="parada_Linha9_Volta39" x="-4157209.908390165" y="-583213.9026402917"/>
	<facility id="parada_Linha9_Volta40" x="-4157002.6314983075" y="-583351.9574945973"/>
	<facility id="parada_Linha9_Volta41" x="-4156845.2257383256" y="-583453.1233705836"/>
	<facility id="parada_Linha9_Volta42" x="-4156477.8714187075" y="-583657.0205643732"/>
</facilities>