<?xml version="1.0" encoding="utf-8"?>
<!DOCTYPE facilities SYSTEM "http://www.matsim.org/files/dtd/facilities_v1.dtd">

<facilities>
	<facility id="parada_EE_Professor_Eliseu_Viana_Volta" x="-4158011.238219" y="-577997.176117"/>
	<facility id="parada_Avenida_Diocesana_Volta0" x="-4158222.559729" y="-578263.735324"/>
	<facility id="parada_Avenida_Diocesana_Volta1" x="-4158410.069314" y="-578509.020553"/>
	<facility id="parada_Tiinha_Restaurante_Volta" x="-4158520.544707" y="-578905.836220"/>
	<facility id="parada_Rua_Francisco_Solon_Volta0" x="-4158555.2044364014" y="-579047.2332403001"/>
	<facility id="parada_FUNDAC" x="-4158615.493828" y="-579217.854558"/>
	<facility id="parada_Aplastec_Center_Ida" x="-4158554.4251999645" y="-579322.0972598532"/>
	<facility id="parada_Rua_Coelho_Neto_Ida0" x="-4158444.256970" y="-579388.942125"/>
	<facility id="parada_Rua_Professor_Manuel_Freire_Volta0" x="-4158517.021851059" y="-579539.9548639059"/>
	<facility id="parada_EE_Monsenhor_Raimundo_Gurgel_Volta" x="-4158663.518300942" y="-579860.5387522449"/>
	<facility id="parada_UPA_Raimundo_Benjamin_Franco_Volta" x="-4158691.5708126226" y="-580064.2019394174"/>
	<facility id="parada_Rua_Souza_Leao_Volta0" x="-4158819.810866016" y="-580355.5016834541"/>
	<facility id="parada_Rua_Zeca_Medeiros_Volta0" x="-4158981.224127667" y="-580466.0528232488"/>
	<facility id="parada_Rua_Zeca_Medeiros_Volta1" x="-4159080.9663914177" y="-580680.5605360218"/>
	<facility id="parada_Supermercado_Reboucas_Belo_Horizonte_Volta" x="-4159144.4185011694" y="-580836.160078866"/>
	<facility id="parada_Rua_Dom_Helder_Camara_Volta0" x="-4159067.995064" y="-580992.776099"/>
	<facility id="parada_Rua_Vicente_Martins_Volta0" x="-4159101.3378582327" y="-581088.6747258622"/>
	<facility id="parada_Rua_Vicente_Martins_Volta1" x="-4158928.124730558" y="-581179.7769573453"/>
	<facility id="parada_Avenida_Alberto_Maranhao_Sul_Volta0" x="-4158913.2079187916" y="-581240.7316820546"/>
	<facility id="parada_Avenida_Alberto_Maranhao_Sul_Volta1" x="-4159295.514656" y="-581542.465822"/>
	<facility id="parada_Rua_Januario_Granjeiro_Volta0" x="-4157915.169415" y="-582488.672629"/>
	<facility id="parada_Rua_Januario_Granjeiro_Volta1" x="-4158043.134778751" y="-582712.7713976711"/>
	<facility id="parada_Rua_Antonio_Geraldo_de_Medeiros_Volta0" x="-4158107.7000834118" y="-582917.560711206"/>
	<facility id="parada_Rua_Nilza_Pires_de_Almeida_Volta0" x="-4157963.091848" y="-583051.499967"/>
	<facility id="parada_Rua_Josefa_Xavier_de_Medeiros_Volta0" x="-4157877.9366544145" y="-582850.0427708835"/>
	<facility id="parada_Rua_Manoel_Balbino_da_Costa_Volta0" x="-4157623.794256934" y="-582907.9472256594"/>
	<facility id="parada_Rua_Zeus_Volta0" x="-4157438.4473047624" y="-583025.2094825705"/>
	<facility id="parada_Rua_Zeus_Volta1" x="-4157209.908390165" y="-583213.9026402917"/>
	<facility id="parada_Rua_Zeus_Volta2" x="-4157002.6314983075" y="-583351.9574945973"/>
	<facility id="parada_Rua_Zeus_Volta3" x="-4156845.2257383256" y="-583453.1233705836"/>
	<facility id="parada_Rua_Zeus_Volta4" x="-4156696.954276" y="-583546.549158"/>
</facilities>