<?xml version="1.0" encoding="utf-8"?>
<!DOCTYPE facilities SYSTEM "http://www.matsim.org/files/dtd/facilities_v1.dtd">

<facilities>
	<facility id="parada_Linha8_Ida0" x="-4155343.637127015" y="-584168.2193790193"/>
	<facility id="parada_Linha8_Ida1" x="-4155392.506383473" y="-584041.6769230055"/>
	<facility id="parada_Linha8_Ida2" x="-4155310.5752382493" y="-583876.7919996429"/>
	<facility id="parada_Linha8_Ida3" x="-4155223.7460354306" y="-583708.4420997003"/>
	<facility id="parada_Linha8_Ida4" x="-4155100.7379981037" y="-583677.2538161508"/>
	<facility id="parada_Linha8_Ida5" x="-4154895.5761765717" y="-583787.251265317"/>
	<facility id="parada_Linha8_Ida6" x="-4154778.8020307305" y="-583576.4229731605"/>
	<facility id="parada_Linha8_Ida7" x="-4154680.506920359" y="-583257.9460216991"/>
	<facility id="parada_Linha8_Ida8" x="-4154860.3992174817" y="-583164.8289561074"/>
	<facility id="parada_Linha8_Ida9" x="-4155094.6154261106" y="-583045.1071967635"/>
	<facility id="parada_Linha8_Ida10" x="-4155137.6960690473" y="-582886.5963496945"/>
	<facility id="parada_Linha8_Ida11" x="-4155233.2081921482" y="-582780.1774210746"/>
	<facility id="parada_Linha8_Ida12" x="-4155359.555814198" y="-582724.3969758484"/>
	<facility id="parada_Linha8_Ida13" x="-4155566.164789111" y="-582613.954061107"/>
</facilities>