<?xml version="1.0" encoding="utf-8"?>
<!DOCTYPE facilities SYSTEM "http://www.matsim.org/files/dtd/facilities_v1.dtd">

<facilities>

	<facility id="casaPessoa0" x="-4154124" y="-579206"/>
	<facility id="trabalho0" x="-4150255" y="-579381"/>
	<facility id="loja0" x="-4151755" y="-578065"/>

	<facility id="casaPessoa1" x="-4155394" y="-581607"/>
	<facility id="loja1" x="-4158327" y="-576395"/>

	<facility id="casaPessoa2" x="-4159373" y="-575921"/>
	<facility id="trabalho2" x="-4161907" y="-584632"/>

	<facility id="casaPessoa3" x="-4158281" y="-582957"/>
	<facility id="trabalho3" x="-4163580" y="-586490"/>

	<facility id="casaPessoa4" x="-4162411" y="-585281"/>
	<facility id="trabalho4" x="-4159133" y="-573874"/>
	<facility id="loja4" x="-4159043" y="-576153"/>

	<facility id="casaPessoa5" x="-4161429" y="-572182"/>
	<facility id="trabalho5" x="-4159126" y="-580390"/>

	<facility id="casaPessoa6" x="-4150286" y="-581374"/>
	<facility id="loja6" x="-4153989" y="-579433"/>

	<facility id="casaPessoa7" x="-4162965" y="-584969"/>
	<facility id="trabalho7" x="-4156033" y="-570313"/>

	<facility id="casaPessoa8" x="-4161034" y="-575877"/>
	<facility id="trabalho8" x="-4149824" y="-579511"/>
	<facility id="loja8" x="-4160058" y="-579990"/>

	<facility id="casaPessoa9" x="-4162552" y="-574966"/>
	<facility id="trabalho9" x="-4160285" y="-578083"/>
	<facility id="loja9" x="-4156145" y="-582171"/>

	<facility id="casaPessoa10" x="-4152754" y="-580275"/>
	<facility id="trabalho10" x="-4157732" y="-573814"/>
	<facility id="loja10" x="-4155527" y="-575553"/>

	<facility id="casaPessoa11" x="-4156972" y="-581772"/>
	<facility id="loja11" x="-4158119" y="-579832"/>

	<facility id="casaPessoa12" x="-4154473" y="-583045"/>
	<facility id="trabalho12" x="-4158554" y="-578712"/>
	<facility id="loja12" x="-4161025" y="-577948"/>

	<facility id="casaPessoa13" x="-4159069" y="-573122"/>
	<facility id="trabalho13" x="-4152441" y="-580573"/>
	<facility id="loja13" x="-4156797" y="-577885"/>

	<facility id="casaPessoa14" x="-4158027" y="-578965"/>
	<facility id="trabalho14" x="-4157372" y="-582246"/>
	<facility id="loja14" x="-4153036" y="-580631"/>

	<facility id="casaPessoa15" x="-4161488" y="-572077"/>
	<facility id="trabalho15" x="-4155558" y="-576786"/>

	<facility id="casaPessoa16" x="-4161992" y="-585257"/>
	<facility id="trabalho16" x="-4152882" y="-585115"/>
	<facility id="loja16" x="-4160619" y="-576500"/>

	<facility id="casaPessoa17" x="-4156682" y="-581391"/>
	<facility id="trabalho17" x="-4153434" y="-584462"/>
	<facility id="loja17" x="-4154010" y="-579608"/>

	<facility id="casaPessoa18" x="-4159273" y="-574084"/>
	<facility id="trabalho18" x="-4158599" y="-577140"/>

	<facility id="casaPessoa19" x="-4159595" y="-578294"/>
	<facility id="trabalho19" x="-4159225" y="-574924"/>
	<facility id="loja19" x="-4150097" y="-574261"/>

	<facility id="casaPessoa20" x="-4160550" y="-578493"/>
	<facility id="loja20" x="-4156388" y="-583348"/>

	<facility id="casaPessoa21" x="-4154035" y="-579477"/>
	<facility id="trabalho21" x="-4155633" y="-580987"/>

	<facility id="casaPessoa22" x="-4152989" y="-579979"/>
	<facility id="trabalho22" x="-4159074" y="-581371"/>
	<facility id="loja22" x="-4157959" y="-583799"/>

	<facility id="casaPessoa23" x="-4157870" y="-579082"/>
	<facility id="trabalho23" x="-4160000" y="-579480"/>

	<facility id="casaPessoa24" x="-4156079" y="-570526"/>
	<facility id="trabalho24" x="-4154887" y="-575562"/>
	<facility id="loja24" x="-4155893" y="-581808"/>

	<facility id="casaPessoa25" x="-4160195" y="-574427"/>
	<facility id="trabalho25" x="-4158199" y="-572994"/>
	<facility id="loja25" x="-4158938" y="-576423"/>

	<facility id="casaPessoa26" x="-4163955" y="-586685"/>
	<facility id="trabalho26" x="-4159616" y="-572556"/>

	<facility id="casaPessoa27" x="-4152466" y="-578220"/>
	<facility id="trabalho27" x="-4157420" y="-576871"/>
	<facility id="loja27" x="-4155129" y="-570532"/>

	<facility id="casaPessoa28" x="-4157200" y="-579200"/>
	<facility id="trabalho28" x="-4151509" y="-578468"/>
	<facility id="loja28" x="-4161046" y="-571946"/>

	<facility id="casaPessoa29" x="-4157491" y="-581419"/>
	<facility id="trabalho29" x="-4159465" y="-580840"/>
	<facility id="loja29" x="-4155788" y="-581907"/>

	<facility id="casaPessoa30" x="-4157066" y="-581416"/>
	<facility id="trabalho30" x="-4161439" y="-572184"/>

	<facility id="casaPessoa31" x="-4159778" y="-579619"/>
	<facility id="loja31" x="-4155631" y="-582065"/>

	<facility id="casaPessoa32" x="-4161375" y="-579023"/>
	<facility id="trabalho32" x="-4156739" y="-580123"/>
	<facility id="loja32" x="-4153813" y="-583404"/>

	<facility id="casaPessoa33" x="-4151934" y="-578420"/>
	<facility id="trabalho33" x="-4155048" y="-584259"/>
	<facility id="loja33" x="-4153054" y="-577457"/>

	<facility id="casaPessoa34" x="-4155969" y="-573185"/>
	<facility id="loja34" x="-4155432" y="-581673"/>

	<facility id="casaPessoa35" x="-4156380" y="-577679"/>
	<facility id="trabalho35" x="-4151069" y="-581122"/>

	<facility id="casaPessoa36" x="-4153521" y="-580071"/>
	<facility id="trabalho36" x="-4159479" y="-574708"/>
	<facility id="loja36" x="-4156108" y="-576930"/>

	<facility id="casaPessoa37" x="-4151791" y="-581088"/>
	<facility id="trabalho37" x="-4152506" y="-581567"/>
	<facility id="loja37" x="-4154407" y="-582919"/>

	<facility id="casaPessoa38" x="-4152320" y="-578840"/>
	<facility id="trabalho38" x="-4159544" y="-577237"/>
	<facility id="loja38" x="-4150779" y="-578172"/>

	<facility id="casaPessoa39" x="-4158869" y="-575378"/>
	<facility id="loja39" x="-4155148" y="-580392"/>

	<facility id="casaPessoa40" x="-4157115" y="-574456"/>
	<facility id="trabalho40" x="-4151659" y="-579149"/>

	<facility id="casaPessoa41" x="-4154164" y="-581846"/>
	<facility id="trabalho41" x="-4150945" y="-578721"/>
	<facility id="loja41" x="-4156865" y="-577731"/>

	<facility id="casaPessoa42" x="-4160708" y="-572288"/>
	<facility id="trabalho42" x="-4161100" y="-579370"/>

	<facility id="casaPessoa43" x="-4155061" y="-584815"/>
	<facility id="trabalho43" x="-4161345" y="-572027"/>
	<facility id="loja43" x="-4151697" y="-581542"/>

	<facility id="casaPessoa44" x="-4159713" y="-572899"/>
	<facility id="trabalho44" x="-4158123" y="-579782"/>
	<facility id="loja44" x="-4152204" y="-580985"/>

	<facility id="casaPessoa45" x="-4155351" y="-570976"/>
	<facility id="loja45" x="-4159267" y="-574019"/>

	<facility id="casaPessoa46" x="-4161638" y="-578858"/>
	<facility id="trabalho46" x="-4153500" y="-578070"/>

	<facility id="casaPessoa47" x="-4158642" y="-579829"/>
	<facility id="trabalho47" x="-4156583" y="-577872"/>
	<facility id="loja47" x="-4155864" y="-581356"/>

	<facility id="casaPessoa48" x="-4156626" y="-580024"/>
	<facility id="loja48" x="-4150143" y="-581635"/>

	<facility id="casaPessoa49" x="-4155596" y="-581996"/>
	<facility id="trabalho49" x="-4151567" y="-581904"/>
	<facility id="loja49" x="-4160354" y="-578803"/>

	<facility id="casaPessoa50" x="-4151828" y="-581416"/>
	<facility id="trabalho50" x="-4157805" y="-579749"/>
	<facility id="loja50" x="-4155203" y="-581567"/>

	<facility id="casaPessoa51" x="-4154506" y="-585107"/>
	<facility id="trabalho51" x="-4154919" y="-582372"/>
	<facility id="loja51" x="-4161579" y="-578771"/>

	<facility id="casaPessoa52" x="-4158997" y="-574657"/>
	<facility id="trabalho52" x="-4159298" y="-576326"/>
	<facility id="loja52" x="-4164113" y="-586576"/>

	<facility id="casaPessoa53" x="-4159959" y="-577976"/>
	<facility id="loja53" x="-4159452" y="-580548"/>

	<facility id="casaPessoa54" x="-4160515" y="-577080"/>
	<facility id="trabalho54" x="-4157529" y="-573869"/>

	<facility id="casaPessoa55" x="-4154193" y="-583718"/>
	<facility id="trabalho55" x="-4162079" y="-585278"/>
	<facility id="loja55" x="-4158716" y="-574817"/>

	<facility id="casaPessoa56" x="-4161977" y="-580729"/>
	<facility id="trabalho56" x="-4154756" y="-583045"/>

	<facility id="casaPessoa57" x="-4158178" y="-579787"/>
	<facility id="trabalho57" x="-4156542" y="-578608"/>
	<facility id="loja57" x="-4156100" y="-583651"/>

	<facility id="casaPessoa58" x="-4158437" y="-585273"/>
	<facility id="trabalho58" x="-4162247" y="-584282"/>

	<facility id="casaPessoa59" x="-4159524" y="-581462"/>
	<facility id="trabalho59" x="-4158000" y="-578816"/>
	<facility id="loja59" x="-4152894" y="-578665"/>

	<facility id="casaPessoa60" x="-4153799" y="-585367"/>
	<facility id="trabalho60" x="-4150851" y="-578657"/>

	<facility id="casaPessoa61" x="-4154603" y="-583605"/>
	<facility id="trabalho61" x="-4156796" y="-576183"/>

	<facility id="casaPessoa62" x="-4156343" y="-577323"/>
	<facility id="trabalho62" x="-4157764" y="-573638"/>
	<facility id="loja62" x="-4156114" y="-570396"/>

	<facility id="casaPessoa63" x="-4152693" y="-579559"/>
	<facility id="trabalho63" x="-4152339" y="-577846"/>

	<facility id="casaPessoa64" x="-4149919" y="-579432"/>
	<facility id="trabalho64" x="-4155596" y="-577150"/>
	<facility id="loja64" x="-4154400" y="-579806"/>

	<facility id="casaPessoa65" x="-4154499" y="-579713"/>
	<facility id="loja65" x="-4155145" y="-582670"/>

	<facility id="casaPessoa66" x="-4161457" y="-582389"/>
	<facility id="trabalho66" x="-4159866" y="-573712"/>

	<facility id="casaPessoa67" x="-4161583" y="-585490"/>
	<facility id="trabalho67" x="-4157369" y="-575883"/>
	<facility id="loja67" x="-4154251" y="-578927"/>

	<facility id="casaPessoa68" x="-4161918" y="-584985"/>
	<facility id="trabalho68" x="-4158347" y="-573077"/>

	<facility id="casaPessoa69" x="-4157743" y="-576573"/>
	<facility id="trabalho69" x="-4160502" y="-579809"/>
	<facility id="loja69" x="-4161171" y="-571712"/>

	<facility id="casaPessoa70" x="-4155864" y="-580186"/>
	<facility id="trabalho70" x="-4156597" y="-581494"/>

	<facility id="casaPessoa71" x="-4154116" y="-581614"/>
	<facility id="trabalho71" x="-4158061" y="-576611"/>
	<facility id="loja71" x="-4158307" y="-575358"/>

	<facility id="casaPessoa72" x="-4154084" y="-579160"/>
	<facility id="trabalho72" x="-4155307" y="-575614"/>
	<facility id="loja72" x="-4150571" y="-578956"/>

	<facility id="casaPessoa73" x="-4155667" y="-580874"/>
	<facility id="trabalho73" x="-4156946" y="-575542"/>
	<facility id="loja73" x="-4155475" y="-581584"/>

	<facility id="casaPessoa74" x="-4160919" y="-578456"/>
	<facility id="trabalho74" x="-4154777" y="-571088"/>
	<facility id="loja74" x="-4153459" y="-580485"/>

	<facility id="casaPessoa75" x="-4156825" y="-583457"/>
	<facility id="trabalho75" x="-4163251" y="-586806"/>

	<facility id="casaPessoa76" x="-4152021" y="-577803"/>
	<facility id="trabalho76" x="-4154922" y="-582322"/>
	<facility id="loja76" x="-4155624" y="-571338"/>

	<facility id="casaPessoa77" x="-4157042" y="-575937"/>
	<facility id="trabalho77" x="-4151614" y="-580597"/>

	<facility id="casaPessoa78" x="-4158766" y="-573100"/>
	<facility id="trabalho78" x="-4158962" y="-574001"/>
	<facility id="loja78" x="-4160037" y="-575290"/>

	<facility id="casaPessoa79" x="-4158337" y="-582994"/>
	<facility id="trabalho79" x="-4154911" y="-580708"/>
	<facility id="loja79" x="-4160660" y="-576933"/>

	<facility id="casaPessoa80" x="-4153912" y="-579364"/>
	<facility id="trabalho80" x="-4159352" y="-580353"/>
	<facility id="loja80" x="-4161645" y="-572125"/>

	<facility id="casaPessoa81" x="-4159625" y="-576845"/>
	<facility id="loja81" x="-4157000" y="-581401"/>

	<facility id="casaPessoa82" x="-4155572" y="-580294"/>
	<facility id="loja82" x="-4160781" y="-579892"/>

	<facility id="casaPessoa83" x="-4151836" y="-579132"/>
	<facility id="trabalho83" x="-4159469" y="-578458"/>
	<facility id="loja83" x="-4163405" y="-584673"/>

	<facility id="casaPessoa84" x="-4153072" y="-579322"/>
	<facility id="trabalho84" x="-4159598" y="-574343"/>
	<facility id="loja84" x="-4154780" y="-583865"/>

	<facility id="casaPessoa85" x="-4152949" y="-577375"/>
	<facility id="loja85" x="-4159140" y="-581055"/>

	<facility id="casaPessoa86" x="-4158129" y="-574650"/>
	<facility id="trabalho86" x="-4158186" y="-578391"/>
	<facility id="loja86" x="-4154401" y="-572669"/>

	<facility id="casaPessoa87" x="-4162259" y="-585118"/>
	<facility id="trabalho87" x="-4159040" y="-572687"/>

	<facility id="casaPessoa88" x="-4160133" y="-579316"/>
	<facility id="loja88" x="-4161255" y="-578145"/>

	<facility id="casaPessoa89" x="-4150647" y="-581371"/>
	<facility id="trabalho89" x="-4153986" y="-579976"/>
	<facility id="loja89" x="-4157913" y="-577914"/>

	<facility id="casaPessoa90" x="-4162756" y="-587201"/>
	<facility id="trabalho90" x="-4161584" y="-579072"/>
	<facility id="loja90" x="-4154004" y="-584958"/>

	<facility id="casaPessoa91" x="-4153339" y="-578309"/>
	<facility id="trabalho91" x="-4160490" y="-577399"/>
	<facility id="loja91" x="-4152717" y="-578904"/>

	<facility id="casaPessoa92" x="-4155337" y="-583117"/>
	<facility id="trabalho92" x="-4150664" y="-581464"/>
	<facility id="loja92" x="-4156399" y="-575556"/>

	<facility id="casaPessoa93" x="-4158276" y="-573173"/>
	<facility id="trabalho93" x="-4154327" y="-579912"/>

	<facility id="casaPessoa94" x="-4151982" y="-581090"/>
	<facility id="trabalho94" x="-4162592" y="-584191"/>

	<facility id="casaPessoa95" x="-4154648" y="-583870"/>
	<facility id="loja95" x="-4160812" y="-577050"/>

	<facility id="casaPessoa96" x="-4155980" y="-576699"/>
	<facility id="trabalho96" x="-4157543" y="-576664"/>
	<facility id="loja96" x="-4160595" y="-579392"/>

	<facility id="casaPessoa97" x="-4156006" y="-579664"/>
	<facility id="loja97" x="-4157739" y="-579643"/>

	<facility id="casaPessoa98" x="-4159452" y="-576302"/>
	<facility id="trabalho98" x="-4151899" y="-577751"/>
	<facility id="loja98" x="-4157515" y="-577158"/>

	<facility id="casaPessoa99" x="-4149627" y="-572373"/>
	<facility id="trabalho99" x="-4154899" y="-571307"/>

	<facility id="casaPessoa100" x="-4156419" y="-574999"/>
	<facility id="trabalho100" x="-4158009" y="-578338"/>

	<facility id="casaPessoa101" x="-4163511" y="-586680"/>
	<facility id="trabalho101" x="-4154498" y="-581727"/>
	<facility id="loja101" x="-4159731" y="-578145"/>

	<facility id="casaPessoa102" x="-4153654" y="-585503"/>
	<facility id="trabalho102" x="-4157497" y="-573246"/>

	<facility id="casaPessoa103" x="-4158310" y="-574535"/>
	<facility id="trabalho103" x="-4151694" y="-579323"/>

	<facility id="casaPessoa104" x="-4152191" y="-578529"/>
	<facility id="loja104" x="-4153561" y="-580861"/>

	<facility id="casaPessoa105" x="-4158770" y="-578334"/>
	<facility id="trabalho105" x="-4153735" y="-579957"/>
	<facility id="loja105" x="-4160846" y="-576749"/>

	<facility id="casaPessoa106" x="-4161184" y="-575923"/>
	<facility id="trabalho106" x="-4151154" y="-578697"/>
	<facility id="loja106" x="-4164336" y="-577193"/>

	<facility id="casaPessoa107" x="-4161722" y="-575097"/>
	<facility id="trabalho107" x="-4157305" y="-578572"/>
	<facility id="loja107" x="-4155948" y="-578836"/>

	<facility id="casaPessoa108" x="-4156612" y="-580568"/>
	<facility id="trabalho108" x="-4153986" y="-581969"/>
	<facility id="loja108" x="-4159760" y="-578155"/>

	<facility id="casaPessoa109" x="-4156033" y="-574807"/>
	<facility id="trabalho109" x="-4154843" y="-584341"/>
	<facility id="loja109" x="-4157998" y="-578762"/>

	<facility id="casaPessoa110" x="-4159908" y="-577683"/>
	<facility id="trabalho110" x="-4159775" y="-577096"/>

	<facility id="casaPessoa111" x="-4149907" y="-580779"/>
	<facility id="trabalho111" x="-4157374" y="-582859"/>
	<facility id="loja111" x="-4154544" y="-582925"/>

	<facility id="casaPessoa112" x="-4154871" y="-575658"/>
	<facility id="trabalho112" x="-4154321" y="-583042"/>
	<facility id="loja112" x="-4157108" y="-582561"/>

	<facility id="casaPessoa113" x="-4160874" y="-570685"/>
	<facility id="trabalho113" x="-4159302" y="-574410"/>

	<facility id="casaPessoa114" x="-4160490" y="-577461"/>
	<facility id="trabalho114" x="-4158142" y="-574534"/>
	<facility id="loja114" x="-4161261" y="-571844"/>

	<facility id="casaPessoa115" x="-4151978" y="-578683"/>
	<facility id="trabalho115" x="-4159680" y="-578252"/>
	<facility id="loja115" x="-4156422" y="-581490"/>

	<facility id="casaPessoa116" x="-4160185" y="-573831"/>
	<facility id="trabalho116" x="-4158986" y="-575844"/>
	<facility id="loja116" x="-4153829" y="-580516"/>

	<facility id="casaPessoa117" x="-4159479" y="-578694"/>
	<facility id="trabalho117" x="-4155147" y="-576774"/>

	<facility id="casaPessoa118" x="-4149911" y="-579630"/>
	<facility id="trabalho118" x="-4156440" y="-583895"/>

	<facility id="casaPessoa119" x="-4155441" y="-583241"/>
	<facility id="trabalho119" x="-4158893" y="-584505"/>
	<facility id="loja119" x="-4151411" y="-579029"/>

	<facility id="casaPessoa120" x="-4161597" y="-578752"/>
	<facility id="trabalho120" x="-4158011" y="-578985"/>
	<facility id="loja120" x="-4157634" y="-582858"/>

	<facility id="casaPessoa121" x="-4156911" y="-575586"/>
	<facility id="trabalho121" x="-4160341" y="-578497"/>
	<facility id="loja121" x="-4154736" y="-582229"/>

	<facility id="casaPessoa122" x="-4153419" y="-580371"/>
	<facility id="trabalho122" x="-4158910" y="-575758"/>
	<facility id="loja122" x="-4161203" y="-578091"/>

	<facility id="casaPessoa123" x="-4153942" y="-583470"/>
	<facility id="trabalho123" x="-4163461" y="-586833"/>
	<facility id="loja123" x="-4151977" y="-578145"/>

	<facility id="casaPessoa124" x="-4161419" y="-578863"/>
	<facility id="trabalho124" x="-4156923" y="-577693"/>

	<facility id="casaPessoa125" x="-4157391" y="-575172"/>
	<facility id="trabalho125" x="-4152472" y="-580079"/>

	<facility id="casaPessoa126" x="-4158485" y="-579454"/>
	<facility id="trabalho126" x="-4164197" y="-577682"/>
	<facility id="loja126" x="-4153055" y="-578434"/>

	<facility id="casaPessoa127" x="-4161874" y="-578948"/>
	<facility id="trabalho127" x="-4156897" y="-575743"/>
	<facility id="loja127" x="-4161373" y="-578965"/>

	<facility id="casaPessoa128" x="-4151402" y="-581722"/>
	<facility id="loja128" x="-4157375" y="-581697"/>

	<facility id="casaPessoa129" x="-4158686" y="-573669"/>
	<facility id="trabalho129" x="-4150813" y="-581040"/>

	<facility id="casaPessoa130" x="-4162277" y="-584268"/>
	<facility id="trabalho130" x="-4154220" y="-581937"/>
	<facility id="loja130" x="-4155772" y="-582768"/>

	<facility id="casaPessoa131" x="-4152092" y="-578560"/>
	<facility id="trabalho131" x="-4157611" y="-583482"/>

	<facility id="casaPessoa132" x="-4156937" y="-581984"/>
	<facility id="trabalho132" x="-4158561" y="-579681"/>

	<facility id="casaPessoa133" x="-4150609" y="-581209"/>
	<facility id="trabalho133" x="-4158918" y="-573016"/>

	<facility id="casaPessoa134" x="-4157955" y="-577082"/>
	<facility id="trabalho134" x="-4150840" y="-578688"/>
	<facility id="loja134" x="-4150605" y="-574972"/>

	<facility id="casaPessoa135" x="-4153034" y="-577393"/>
	<facility id="trabalho135" x="-4156459" y="-582093"/>
	<facility id="loja135" x="-4156122" y="-581322"/>

	<facility id="casaPessoa136" x="-4152705" y="-580631"/>
	<facility id="trabalho136" x="-4157383" y="-579401"/>

	<facility id="casaPessoa137" x="-4155104" y="-570883"/>
	<facility id="trabalho137" x="-4151827" y="-581865"/>
	<facility id="loja137" x="-4153814" y="-580612"/>

	<facility id="casaPessoa138" x="-4162795" y="-585059"/>
	<facility id="trabalho138" x="-4162159" y="-584942"/>
	<facility id="loja138" x="-4149937" y="-579429"/>

	<facility id="casaPessoa139" x="-4161131" y="-575872"/>
	<facility id="trabalho139" x="-4157848" y="-574686"/>
	<facility id="loja139" x="-4158753" y="-576246"/>

	<facility id="casaPessoa140" x="-4152871" y="-578281"/>
	<facility id="trabalho140" x="-4157043" y="-575924"/>

	<facility id="casaPessoa141" x="-4157876" y="-582740"/>
	<facility id="trabalho141" x="-4160968" y="-578647"/>
	<facility id="loja141" x="-4159164" y="-572509"/>

	<facility id="casaPessoa142" x="-4158552" y="-580316"/>
	<facility id="loja142" x="-4151501" y="-580543"/>

	<facility id="casaPessoa143" x="-4157451" y="-579930"/>
	<facility id="loja143" x="-4159550" y="-574929"/>

	<facility id="casaPessoa144" x="-4160087" y="-576522"/>
	<facility id="trabalho144" x="-4158399" y="-573667"/>

	<facility id="casaPessoa145" x="-4159950" y="-577797"/>
	<facility id="loja145" x="-4150866" y="-578652"/>

	<facility id="casaPessoa146" x="-4151018" y="-578405"/>
	<facility id="trabalho146" x="-4158734" y="-574891"/>
	<facility id="loja146" x="-4160118" y="-578358"/>

	<facility id="casaPessoa147" x="-4158870" y="-575721"/>
	<facility id="trabalho147" x="-4159035" y="-581380"/>
	<facility id="loja147" x="-4159266" y="-575987"/>

	<facility id="casaPessoa148" x="-4151388" y="-579332"/>
	<facility id="trabalho148" x="-4151942" y="-580085"/>
	<facility id="loja148" x="-4157706" y="-573862"/>

	<facility id="casaPessoa149" x="-4156515" y="-583869"/>
	<facility id="trabalho149" x="-4161925" y="-585328"/>
	<facility id="loja149" x="-4156082" y="-575804"/>

	<facility id="casaPessoa150" x="-4157844" y="-576558"/>
	<facility id="trabalho150" x="-4151834" y="-580649"/>
	<facility id="loja150" x="-4154594" y="-582317"/>

	<facility id="casaPessoa151" x="-4156719" y="-580842"/>
	<facility id="trabalho151" x="-4160285" y="-579792"/>
	<facility id="loja151" x="-4159261" y="-574503"/>

	<facility id="casaPessoa152" x="-4155655" y="-576959"/>
	<facility id="trabalho152" x="-4159068" y="-577549"/>
	<facility id="loja152" x="-4156327" y="-584132"/>

	<facility id="casaPessoa153" x="-4161225" y="-578418"/>
	<facility id="trabalho153" x="-4161510" y="-582320"/>
	<facility id="loja153" x="-4155943" y="-584463"/>

	<facility id="casaPessoa154" x="-4159176" y="-574826"/>
	<facility id="trabalho154" x="-4156822" y="-577035"/>

	<facility id="casaPessoa155" x="-4154614" y="-585236"/>
	<facility id="loja155" x="-4155587" y="-580541"/>

	<facility id="casaPessoa156" x="-4159089" y="-577001"/>
	<facility id="trabalho156" x="-4149338" y="-580010"/>
	<facility id="loja156" x="-4151472" y="-582367"/>

	<facility id="casaPessoa157" x="-4161116" y="-572307"/>
	<facility id="trabalho157" x="-4158180" y="-576285"/>
	<facility id="loja157" x="-4154792" y="-574237"/>

	<facility id="casaPessoa158" x="-4155430" y="-572647"/>
	<facility id="trabalho158" x="-4157072" y="-573559"/>

	<facility id="casaPessoa159" x="-4155255" y="-583128"/>
	<facility id="trabalho159" x="-4155993" y="-582913"/>
	<facility id="loja159" x="-4154040" y="-581351"/>

	<facility id="casaPessoa160" x="-4158400" y="-577761"/>
	<facility id="trabalho160" x="-4160267" y="-578189"/>

	<facility id="casaPessoa161" x="-4159766" y="-577621"/>
	<facility id="trabalho161" x="-4157618" y="-573119"/>
	<facility id="loja161" x="-4160694" y="-579704"/>

	<facility id="casaPessoa162" x="-4154820" y="-571132"/>
	<facility id="trabalho162" x="-4157656" y="-582831"/>
	<facility id="loja162" x="-4153879" y="-583197"/>

	<facility id="casaPessoa163" x="-4160094" y="-576536"/>
	<facility id="loja163" x="-4154184" y="-585093"/>

	<facility id="casaPessoa164" x="-4159768" y="-579963"/>
	<facility id="trabalho164" x="-4161747" y="-585053"/>
	<facility id="loja164" x="-4158687" y="-576082"/>

	<facility id="casaPessoa165" x="-4154082" y="-583891"/>
	<facility id="trabalho165" x="-4151966" y="-578422"/>
	<facility id="loja165" x="-4156497" y="-579804"/>

	<facility id="casaPessoa166" x="-4156637" y="-583527"/>
	<facility id="trabalho166" x="-4161139" y="-577947"/>

	<facility id="casaPessoa167" x="-4162029" y="-580723"/>
	<facility id="trabalho167" x="-4152899" y="-578248"/>
	<facility id="loja167" x="-4152673" y="-579164"/>

	<facility id="casaPessoa168" x="-4162832" y="-587161"/>
	<facility id="trabalho168" x="-4155052" y="-571144"/>
	<facility id="loja168" x="-4156406" y="-583490"/>

	<facility id="casaPessoa169" x="-4157642" y="-583356"/>
	<facility id="trabalho169" x="-4153241" y="-578626"/>
	<facility id="loja169" x="-4158042" y="-576582"/>

	<facility id="casaPessoa170" x="-4152677" y="-580462"/>
	<facility id="trabalho170" x="-4157642" y="-573148"/>

	<facility id="casaPessoa171" x="-4153597" y="-571253"/>
	<facility id="trabalho171" x="-4151719" y="-581985"/>
	<facility id="loja171" x="-4152134" y="-580748"/>

	<facility id="casaPessoa172" x="-4155815" y="-581499"/>
	<facility id="loja172" x="-4152301" y="-578847"/>

	<facility id="casaPessoa173" x="-4154838" y="-583412"/>
	<facility id="trabalho173" x="-4156716" y="-573852"/>
	<facility id="loja173" x="-4157477" y="-575237"/>

	<facility id="casaPessoa174" x="-4155092" y="-584301"/>
	<facility id="loja174" x="-4157783" y="-582116"/>

	<facility id="casaPessoa175" x="-4151661" y="-580433"/>
	<facility id="trabalho175" x="-4150518" y="-581167"/>
	<facility id="loja175" x="-4154844" y="-579716"/>

	<facility id="casaPessoa176" x="-4157002" y="-576340"/>
	<facility id="trabalho176" x="-4152360" y="-580684"/>

	<facility id="casaPessoa177" x="-4159172" y="-580798"/>
	<facility id="trabalho177" x="-4154595" y="-582740"/>
	<facility id="loja177" x="-4161237" y="-571261"/>

	<facility id="casaPessoa178" x="-4160972" y="-570591"/>
	<facility id="trabalho178" x="-4160840" y="-572041"/>
	<facility id="loja178" x="-4161759" y="-585237"/>

	<facility id="casaPessoa179" x="-4159211" y="-578639"/>
	<facility id="trabalho179" x="-4155317" y="-582677"/>

	<facility id="casaPessoa180" x="-4159007" y="-574142"/>
	<facility id="trabalho180" x="-4155224" y="-583648"/>

	<facility id="casaPessoa181" x="-4161337" y="-578046"/>
	<facility id="trabalho181" x="-4153662" y="-575651"/>
	<facility id="loja181" x="-4162934" y="-584698"/>

	<facility id="casaPessoa182" x="-4159023" y="-582356"/>
	<facility id="trabalho182" x="-4160381" y="-579266"/>
	<facility id="loja182" x="-4152943" y="-584892"/>

	<facility id="casaPessoa183" x="-4153290" y="-578402"/>
	<facility id="trabalho183" x="-4155827" y="-580179"/>
	<facility id="loja183" x="-4155748" y="-581588"/>

	<facility id="casaPessoa184" x="-4159238" y="-578813"/>
	<facility id="loja184" x="-4151935" y="-578641"/>

	<facility id="casaPessoa185" x="-4161762" y="-585285"/>
	<facility id="trabalho185" x="-4157071" y="-578783"/>
	<facility id="loja185" x="-4161650" y="-585575"/>

	<facility id="casaPessoa186" x="-4149300" y="-579254"/>
	<facility id="loja186" x="-4149631" y="-579761"/>

	<facility id="casaPessoa187" x="-4161012" y="-572691"/>
	<facility id="trabalho187" x="-4155208" y="-571015"/>

	<facility id="casaPessoa188" x="-4157537" y="-583518"/>
	<facility id="trabalho188" x="-4158087" y="-575896"/>
	<facility id="loja188" x="-4152452" y="-580161"/>

	<facility id="casaPessoa189" x="-4158844" y="-573206"/>
	<facility id="trabalho189" x="-4152737" y="-579928"/>

	<facility id="casaPessoa190" x="-4154352" y="-583355"/>
	<facility id="trabalho190" x="-4160755" y="-577858"/>
	<facility id="loja190" x="-4150532" y="-574873"/>

	<facility id="casaPessoa191" x="-4160295" y="-571002"/>
	<facility id="trabalho191" x="-4154119" y="-581577"/>

	<facility id="casaPessoa192" x="-4159070" y="-581306"/>
	<facility id="trabalho192" x="-4157701" y="-576103"/>
	<facility id="loja192" x="-4153741" y="-584348"/>

	<facility id="casaPessoa193" x="-4156096" y="-580343"/>
	<facility id="trabalho193" x="-4154743" y="-580417"/>
	<facility id="loja193" x="-4160120" y="-576453"/>

	<facility id="casaPessoa194" x="-4158872" y="-574928"/>
	<facility id="trabalho194" x="-4161387" y="-584623"/>
	<facility id="loja194" x="-4151601" y="-578934"/>

	<facility id="casaPessoa195" x="-4157447" y="-576979"/>
	<facility id="trabalho195" x="-4152535" y="-580954"/>

	<facility id="casaPessoa196" x="-4158635" y="-580166"/>
	<facility id="trabalho196" x="-4160739" y="-575861"/>
	<facility id="loja196" x="-4153327" y="-584233"/>

	<facility id="casaPessoa197" x="-4153965" y="-583265"/>
	<facility id="trabalho197" x="-4159838" y="-573723"/>
	<facility id="loja197" x="-4154828" y="-584193"/>

	<facility id="casaPessoa198" x="-4156741" y="-575181"/>
	<facility id="trabalho198" x="-4150409" y="-574778"/>
	<facility id="loja198" x="-4156210" y="-580397"/>

	<facility id="casaPessoa199" x="-4151512" y="-581474"/>
	<facility id="trabalho199" x="-4159897" y="-578299"/>
	<facility id="loja199" x="-4156567" y="-581600"/>

	<facility id="casaPessoa200" x="-4153500" y="-583334"/>
	<facility id="trabalho200" x="-4162463" y="-586962"/>
	<facility id="loja200" x="-4153543" y="-578133"/>

	<facility id="casaPessoa201" x="-4156380" y="-581096"/>
	<facility id="loja201" x="-4153213" y="-579893"/>

	<facility id="casaPessoa202" x="-4155456" y="-576173"/>
	<facility id="loja202" x="-4155528" y="-582520"/>

	<facility id="casaPessoa203" x="-4154820" y="-584248"/>
	<facility id="trabalho203" x="-4160824" y="-579210"/>
	<facility id="loja203" x="-4158486" y="-575507"/>

	<facility id="casaPessoa204" x="-4156683" y="-578652"/>
	<facility id="trabalho204" x="-4160020" y="-579752"/>
	<facility id="loja204" x="-4159116" y="-573050"/>

	<facility id="casaPessoa205" x="-4160877" y="-578648"/>
	<facility id="trabalho205" x="-4157303" y="-576189"/>
	<facility id="loja205" x="-4153349" y="-584830"/>

	<facility id="casaPessoa206" x="-4158742" y="-577702"/>
	<facility id="trabalho206" x="-4153849" y="-583153"/>

	<facility id="casaPessoa207" x="-4160908" y="-578898"/>
	<facility id="trabalho207" x="-4150263" y="-574686"/>
	<facility id="loja207" x="-4154804" y="-581492"/>

	<facility id="casaPessoa208" x="-4158318" y="-576525"/>
	<facility id="trabalho208" x="-4160149" y="-579270"/>

	<facility id="casaPessoa209" x="-4156754" y="-582699"/>
	<facility id="trabalho209" x="-4156370" y="-579543"/>
	<facility id="loja209" x="-4159691" y="-574613"/>

	<facility id="casaPessoa210" x="-4154183" y="-579546"/>
	<facility id="trabalho210" x="-4156960" y="-577296"/>
	<facility id="loja210" x="-4156451" y="-582256"/>

	<facility id="casaPessoa211" x="-4159306" y="-580295"/>
	<facility id="loja211" x="-4163075" y="-584684"/>

	<facility id="casaPessoa212" x="-4163866" y="-586382"/>