<?xml version="1.0" encoding="utf-8"?>
<!DOCTYPE plans SYSTEM "http://www.matsim.org/files/dtd/plans_v4.dtd">

<plans>

	<person id="pessoa0">
		<plan>
			<act end_time="04:45:19" x="-4154124" y="-579206" type="home"/>
			<leg mode="pt"/>
			<act end_time="12:45:19" x="-4150255" y="-579381" type="work"/>
			<leg mode="pt"/>
			<act x="-4154124" y="-579206" type="home"/>
		</plan>
	</person>

	<person id="pessoa1">
		<plan>
			<act end_time="06:53:11" x="-4155394" y="-581607" type="home"/>
			<leg mode="pt"/>
			<act end_time="17:53:11" x="-4158327" y="-576395" type="shop"/>
			<leg mode="pt"/>
			<act x="-4155394" y="-581607" type="home"/>
		</plan>
	</person>

	<person id="pessoa2">
		<plan>
			<act end_time="11:45:04" x="-4159373" y="-575921" type="home"/>
			<leg mode="pt"/>
			<act end_time="18:45:04" x="-4161907" y="-584632" type="work"/>
			<leg mode="pt"/>
			<act x="-4159373" y="-575921" type="home"/>
		</plan>
	</person>

	<person id="pessoa3">
		<plan>
			<act end_time="07:27:41" x="-4163580" y="-586490" type="work"/>
			<leg mode="pt"/>
			<act end_time="22:27:41" x="-4158281" y="-582957" type="home"/>
			<leg mode="pt"/>
			<act x="-4163580" y="-586490" type="work"/>
		</plan>
	</person>

	<person id="pessoa4">
		<plan>
			<act end_time="07:37:08" x="-4159133" y="-573874" type="work"/>
			<leg mode="pt"/>
			<act end_time="17:37:08" x="-4162411" y="-585281" type="home"/>
			<leg mode="pt"/>
			<act x="-4159133" y="-573874" type="work"/>
		</plan>
	</person>

	<person id="pessoa5">
		<plan>
			<act end_time="06:39:42" x="-4161429" y="-572182" type="home"/>
			<leg mode="pt"/>
			<act end_time="12:39:42" x="-4159126" y="-580390" type="work"/>
			<leg mode="pt"/>
			<act x="-4161429" y="-572182" type="home"/>
		</plan>
	</person>

	<person id="pessoa6">
		<plan>
			<act end_time="08:56:16" x="-4150286" y="-581374" type="home"/>
			<leg mode="pt"/>
			<act end_time="18:56:16" x="-4153989" y="-579433" type="shop"/>
			<leg mode="pt"/>
			<act x="-4150286" y="-581374" type="home"/>
		</plan>
	</person>

	<person id="pessoa7">
		<plan>
			<act end_time="08:13:09" x="-4156033" y="-570313" type="work"/>
			<leg mode="pt"/>
			<act end_time="21:13:09" x="-4162965" y="-584969" type="home"/>
			<leg mode="pt"/>
			<act x="-4156033" y="-570313" type="work"/>
		</plan>
	</person>

	<person id="pessoa8">
		<plan>
			<act end_time="08:58:57" x="-4149824" y="-579511" type="work"/>
			<leg mode="pt"/>
			<act end_time="22:58:57" x="-4161034" y="-575877" type="home"/>
			<leg mode="pt"/>
			<act x="-4149824" y="-579511" type="work"/>
		</plan>
	</person>

	<person id="pessoa9">
		<plan>
			<act end_time="08:55:11" x="-4160285" y="-578083" type="work"/>
			<leg mode="pt"/>
			<act end_time="20:55:11" x="-4162552" y="-574966" type="home"/>
			<leg mode="pt"/>
			<act x="-4160285" y="-578083" type="work"/>
		</plan>
	</person>

	<person id="pessoa10">
		<plan>
			<act end_time="07:55:40" x="-4157732" y="-573814" type="work"/>
			<leg mode="pt"/>
			<act end_time="17:55:40" x="-4152754" y="-580275" type="home"/>
			<leg mode="pt"/>
			<act x="-4157732" y="-573814" type="work"/>
		</plan>
	</person>

	<person id="pessoa11">
		<plan>
			<act end_time="06:49:53" x="-4156972" y="-581772" type="home"/>
			<leg mode="pt"/>
			<act end_time="17:49:53" x="-4158119" y="-579832" type="shop"/>
			<leg mode="pt"/>
			<act x="-4156972" y="-581772" type="home"/>
		</plan>
	</person>

	<person id="pessoa12">
		<plan>
			<act end_time="04:54:36" x="-4154473" y="-583045" type="home"/>
			<leg mode="pt"/>
			<act end_time="11:54:36" x="-4161025" y="-577948" type="shop"/>
			<leg mode="pt"/>
			<act end_time="20:54:36" x="-4158554" y="-578712" type="work"/>
			<leg mode="pt"/>
			<act x="-4154473" y="-583045" type="home"/>
		</plan>
	</person>

	<person id="pessoa13">
		<plan>
			<act end_time="11:45:41" x="-4159069" y="-573122" type="home"/>
			<leg mode="pt"/>
			<act end_time="19:45:41" x="-4152441" y="-580573" type="work"/>
			<leg mode="pt"/>
			<act x="-4159069" y="-573122" type="home"/>
		</plan>
	</person>

	<person id="pessoa14">
		<plan>
			<act end_time="07:42:31" x="-4157372" y="-582246" type="work"/>
			<leg mode="pt"/>
			<act end_time="20:42:31" x="-4158027" y="-578965" type="home"/>
			<leg mode="pt"/>
			<act x="-4157372" y="-582246" type="work"/>
		</plan>
	</person>

	<person id="pessoa15">
		<plan>
			<act end_time="07:50:43" x="-4155558" y="-576786" type="work"/>
			<leg mode="pt"/>
			<act end_time="18:50:43" x="-4161488" y="-572077" type="home"/>
			<leg mode="pt"/>
			<act x="-4155558" y="-576786" type="work"/>
		</plan>
	</person>

	<person id="pessoa16">
		<plan>
			<act end_time="08:20:58" x="-4152882" y="-585115" type="work"/>
			<leg mode="pt"/>
			<act end_time="18:20:58" x="-4161992" y="-585257" type="home"/>
			<leg mode="pt"/>
			<act x="-4152882" y="-585115" type="work"/>
		</plan>
	</person>

	<person id="pessoa17">
		<plan>
			<act end_time="06:52:16" x="-4153434" y="-584462" type="work"/>
			<leg mode="pt"/>
			<act end_time="19:52:16" x="-4156682" y="-581391" type="home"/>
			<leg mode="pt"/>
			<act x="-4153434" y="-584462" type="work"/>
		</plan>
	</person>

	<person id="pessoa18">
		<plan>
			<act end_time="05:04:22" x="-4158599" y="-577140" type="work"/>
			<leg mode="pt"/>
			<act end_time="18:04:22" x="-4159273" y="-574084" type="home"/>
			<leg mode="pt"/>
			<act x="-4158599" y="-577140" type="work"/>
		</plan>
	</person>

	<person id="pessoa19">
		<plan>
			<act end_time="04:31:24" x="-4159225" y="-574924" type="work"/>
			<leg mode="pt"/>
			<act end_time="18:31:24" x="-4159595" y="-578294" type="home"/>
			<leg mode="pt"/>
			<act x="-4159225" y="-574924" type="work"/>
		</plan>
	</person>

	<person id="pessoa20">
		<plan>
			<act end_time="13:44:20" x="-4160550" y="-578493" type="home"/>
			<leg mode="pt"/>
			<act end_time="17:44:20" x="-4156388" y="-583348" type="shop"/>
			<leg mode="pt"/>
			<act x="-4160550" y="-578493" type="home"/>
		</plan>
	</person>

	<person id="pessoa21">
		<plan>
			<act end_time="05:19:56" x="-4155633" y="-580987" type="work"/>
			<leg mode="pt"/>
			<act end_time="20:19:56" x="-4154035" y="-579477" type="home"/>
			<leg mode="pt"/>
			<act x="-4155633" y="-580987" type="work"/>
		</plan>
	</person>

	<person id="pessoa22">
		<plan>
			<act end_time="06:10:17" x="-4159074" y="-581371" type="work"/>
			<leg mode="pt"/>
			<act end_time="19:10:17" x="-4152989" y="-579979" type="home"/>
			<leg mode="pt"/>
			<act x="-4159074" y="-581371" type="work"/>
		</plan>
	</person>

	<person id="pessoa23">
		<plan>
			<act end_time="08:12:16" x="-4157870" y="-579082" type="home"/>
			<leg mode="pt"/>
			<act end_time="13:12:16" x="-4160000" y="-579480" type="work"/>
			<leg mode="pt"/>
			<act x="-4157870" y="-579082" type="home"/>
		</plan>
	</person>

	<person id="pessoa24">
		<plan>
			<act end_time="05:29:13" x="-4154887" y="-575562" type="work"/>
			<leg mode="pt"/>
			<act end_time="22:29:13" x="-4156079" y="-570526" type="home"/>
			<leg mode="pt"/>
			<act x="-4154887" y="-575562" type="work"/>
		</plan>
	</person>

	<person id="pessoa25">
		<plan>
			<act end_time="06:07:26" x="-4158199" y="-572994" type="work"/>
			<leg mode="pt"/>
			<act end_time="20:07:26" x="-4160195" y="-574427" type="home"/>
			<leg mode="pt"/>
			<act x="-4158199" y="-572994" type="work"/>
		</plan>
	</person>

	<person id="pessoa26">
		<plan>
			<act end_time="12:00:27" x="-4163955" y="-586685" type="home"/>
			<leg mode="pt"/>
			<act end_time="21:00:27" x="-4159616" y="-572556" type="work"/>
			<leg mode="pt"/>
			<act x="-4163955" y="-586685" type="home"/>
		</plan>
	</person>

	<person id="pessoa27">
		<plan>
			<act end_time="14:03:45" x="-4152466" y="-578220" type="home"/>
			<leg mode="pt"/>
			<act end_time="17:03:45" x="-4155129" y="-570532" type="shop"/>
			<leg mode="pt"/>
			<act x="-4152466" y="-578220" type="home"/>
		</plan>
	</person>

	<person id="pessoa28">
		<plan>
			<act end_time="08:40:20" x="-4157200" y="-579200" type="home"/>
			<leg mode="pt"/>
			<act end_time="13:40:20" x="-4151509" y="-578468" type="work"/>
			<leg mode="pt"/>
			<act x="-4157200" y="-579200" type="home"/>
		</plan>
	</person>

	<person id="pessoa29">
		<plan>
			<act end_time="05:07:47" x="-4159465" y="-580840" type="work"/>
			<leg mode="pt"/>
			<act end_time="22:07:47" x="-4157491" y="-581419" type="home"/>
			<leg mode="pt"/>
			<act x="-4159465" y="-580840" type="work"/>
		</plan>
	</person>

	<person id="pessoa30">
		<plan>
			<act end_time="08:45:57" x="-4161439" y="-572184" type="work"/>
			<leg mode="pt"/>
			<act end_time="21:45:57" x="-4157066" y="-581416" type="home"/>
			<leg mode="pt"/>
			<act x="-4161439" y="-572184" type="work"/>
		</plan>
	</person>

	<person id="pessoa31">
		<plan>
			<act end_time="11:04:55" x="-4159778" y="-579619" type="home"/>
			<leg mode="pt"/>
			<act end_time="18:04:55" x="-4155631" y="-582065" type="shop"/>
			<leg mode="pt"/>
			<act x="-4159778" y="-579619" type="home"/>
		</plan>
	</person>

	<person id="pessoa32">
		<plan>
			<act end_time="08:57:24" x="-4156739" y="-580123" type="work"/>
			<leg mode="pt"/>
			<act end_time="22:57:24" x="-4161375" y="-579023" type="home"/>
			<leg mode="pt"/>
			<act x="-4156739" y="-580123" type="work"/>
		</plan>
	</person>

	<person id="pessoa33">
		<plan>
			<act end_time="08:06:01" x="-4151934" y="-578420" type="home"/>
			<leg mode="pt"/>
			<act end_time="12:06:01" x="-4153054" y="-577457" type="shop"/>
			<leg mode="pt"/>
			<act end_time="19:06:01" x="-4155048" y="-584259" type="work"/>
			<leg mode="pt"/>
			<act x="-4151934" y="-578420" type="home"/>
		</plan>
	</person>

	<person id="pessoa34">
		<plan>
			<act end_time="05:17:01" x="-4155969" y="-573185" type="home"/>
			<leg mode="pt"/>
			<act end_time="17:17:01" x="-4155432" y="-581673" type="shop"/>
			<leg mode="pt"/>
			<act x="-4155969" y="-573185" type="home"/>
		</plan>
	</person>

	<person id="pessoa35">
		<plan>
			<act end_time="04:39:37" x="-4151069" y="-581122" type="work"/>
			<leg mode="pt"/>
			<act end_time="21:39:37" x="-4156380" y="-577679" type="home"/>
			<leg mode="pt"/>
			<act x="-4151069" y="-581122" type="work"/>
		</plan>
	</person>

	<person id="pessoa36">
		<plan>
			<act end_time="08:26:35" x="-4159479" y="-574708" type="work"/>
			<leg mode="pt"/>
			<act end_time="21:26:35" x="-4153521" y="-580071" type="home"/>
			<leg mode="pt"/>
			<act x="-4159479" y="-574708" type="work"/>
		</plan>
	</person>

	<person id="pessoa37">
		<plan>
			<act end_time="08:20:07" x="-4152506" y="-581567" type="work"/>
			<leg mode="pt"/>
			<act end_time="22:20:07" x="-4151791" y="-581088" type="home"/>
			<leg mode="pt"/>
			<act x="-4152506" y="-581567" type="work"/>
		</plan>
	</person>

	<person id="pessoa38">
		<plan>
			<act end_time="04:28:27" x="-4152320" y="-578840" type="home"/>
			<leg mode="pt"/>
			<act end_time="22:28:27" x="-4159544" y="-577237" type="work"/>
			<leg mode="pt"/>
			<act x="-4152320" y="-578840" type="home"/>
		</plan>
	</person>

	<person id="pessoa39">
		<plan>
			<act end_time="14:23:55" x="-4158869" y="-575378" type="home"/>
			<leg mode="pt"/>
			<act end_time="21:23:55" x="-4155148" y="-580392" type="shop"/>
			<leg mode="pt"/>
			<act x="-4158869" y="-575378" type="home"/>
		</plan>
	</person>

	<person id="pessoa40">
		<plan>
			<act end_time="04:01:20" x="-4151659" y="-579149" type="work"/>
			<leg mode="pt"/>
			<act end_time="18:01:20" x="-4157115" y="-574456" type="home"/>
			<leg mode="pt"/>
			<act x="-4151659" y="-579149" type="work"/>
		</plan>
	</person>

	<person id="pessoa41">
		<plan>
			<act end_time="14:35:04" x="-4154164" y="-581846" type="home"/>
			<leg mode="pt"/>
			<act end_time="17:35:04" x="-4150945" y="-578721" type="work"/>
			<leg mode="pt"/>
			<act x="-4154164" y="-581846" type="home"/>
		</plan>
	</person>

	<person id="pessoa42">
		<plan>
			<act end_time="05:52:56" x="-4160708" y="-572288" type="home"/>
			<leg mode="pt"/>
			<act end_time="22:52:56" x="-4161100" y="-579370" type="work"/>
			<leg mode="pt"/>
			<act x="-4160708" y="-572288" type="home"/>
		</plan>
	</person>

	<person id="pessoa43">
		<plan>
			<act end_time="04:02:56" x="-4161345" y="-572027" type="work"/>
			<leg mode="pt"/>
			<act end_time="21:02:56" x="-4155061" y="-584815" type="home"/>
			<leg mode="pt"/>
			<act x="-4161345" y="-572027" type="work"/>
		</plan>
	</person>

	<person id="pessoa44">
		<plan>
			<act end_time="07:03:44" x="-4159713" y="-572899" type="home"/>
			<leg mode="pt"/>
			<act end_time="11:03:44" x="-4158123" y="-579782" type="work"/>
			<leg mode="pt"/>
			<act end_time="17:03:44" x="-4152204" y="-580985" type="shop"/>
			<leg mode="pt"/>
			<act x="-4159713" y="-572899" type="home"/>
		</plan>
	</person>

	<person id="pessoa45">
		<plan>
			<act end_time="06:22:22" x="-4155351" y="-570976" type="home"/>
			<leg mode="pt"/>
			<act end_time="11:22:22" x="-4159267" y="-574019" type="shop"/>
			<leg mode="pt"/>
			<act x="-4155351" y="-570976" type="home"/>
		</plan>
	</person>

	<person id="pessoa46">
		<plan>
			<act end_time="08:47:43" x="-4153500" y="-578070" type="work"/>
			<leg mode="pt"/>
			<act end_time="21:47:43" x="-4161638" y="-578858" type="home"/>
			<leg mode="pt"/>
			<act x="-4153500" y="-578070" type="work"/>
		</plan>
	</person>

	<person id="pessoa47">
		<plan>
			<act end_time="06:07:22" x="-4156583" y="-577872" type="work"/>
			<leg mode="pt"/>
			<act end_time="18:07:22" x="-4158642" y="-579829" type="home"/>
			<leg mode="pt"/>
			<act x="-4156583" y="-577872" type="work"/>
		</plan>
	</person>

	<person id="pessoa48">
		<plan>
			<act end_time="08:39:21" x="-4156626" y="-580024" type="home"/>
			<leg mode="pt"/>
			<act end_time="20:39:21" x="-4150143" y="-581635" type="shop"/>
			<leg mode="pt"/>
			<act x="-4156626" y="-580024" type="home"/>
		</plan>
	</person>

	<person id="pessoa49">
		<plan>
			<act end_time="04:56:09" x="-4155596" y="-581996" type="home"/>
			<leg mode="pt"/>
			<act end_time="18:56:09" x="-4151567" y="-581904" type="work"/>
			<leg mode="pt"/>
			<act x="-4155596" y="-581996" type="home"/>
		</plan>
	</person>

	<person id="pessoa50">
		<plan>
			<act end_time="06:04:01" x="-4157805" y="-579749" type="work"/>
			<leg mode="pt"/>
			<act end_time="20:04:01" x="-4151828" y="-581416" type="home"/>
			<leg mode="pt"/>
			<act x="-4157805" y="-579749" type="work"/>
		</plan>
	</person>

	<person id="pessoa51">
		<plan>
			<act end_time="05:07:27" x="-4154919" y="-582372" type="work"/>
			<leg mode="pt"/>
			<act end_time="18:07:27" x="-4154506" y="-585107" type="home"/>
			<leg mode="pt"/>
			<act x="-4154919" y="-582372" type="work"/>
		</plan>
	</person>

	<person id="pessoa52">
		<plan>
			<act end_time="05:56:17" x="-4158997" y="-574657" type="home"/>
			<leg mode="pt"/>
			<act end_time="19:56:17" x="-4159298" y="-576326" type="work"/>
			<leg mode="pt"/>
			<act x="-4158997" y="-574657" type="home"/>
		</plan>
	</person>

	<person id="pessoa53">
		<plan>
			<act end_time="08:03:31" x="-4159959" y="-577976" type="home"/>
			<leg mode="pt"/>
			<act end_time="18:03:31" x="-4159452" y="-580548" type="shop"/>
			<leg mode="pt"/>
			<act x="-4159959" y="-577976" type="home"/>
		</plan>
	</person>

	<person id="pessoa54">
		<plan>
			<act end_time="08:59:19" x="-4157529" y="-573869" type="work"/>
			<leg mode="pt"/>
			<act end_time="18:59:19" x="-4160515" y="-577080" type="home"/>
			<leg mode="pt"/>
			<act x="-4157529" y="-573869" type="work"/>
		</plan>
	</person>

	<person id="pessoa55">
		<plan>
			<act end_time="04:45:32" x="-4162079" y="-585278" type="work"/>
			<leg mode="pt"/>
			<act end_time="20:45:32" x="-4154193" y="-583718" type="home"/>
			<leg mode="pt"/>
			<act x="-4162079" y="-585278" type="work"/>
		</plan>
	</person>

	<person id="pessoa56">
		<plan>
			<act end_time="04:01:14" x="-4154756" y="-583045" type="work"/>
			<leg mode="pt"/>
			<act end_time="19:01:14" x="-4161977" y="-580729" type="home"/>
			<leg mode="pt"/>
			<act x="-4154756" y="-583045" type="work"/>
		</plan>
	</person>

	<person id="pessoa57">
		<plan>
			<act end_time="04:40:00" x="-4156542" y="-578608" type="work"/>
			<leg mode="pt"/>
			<act end_time="20:40:00" x="-4158178" y="-579787" type="home"/>
			<leg mode="pt"/>
			<act x="-4156542" y="-578608" type="work"/>
		</plan>
	</person>

	<person id="pessoa58">
		<plan>
			<act end_time="06:47:14" x="-4158437" y="-585273" type="home"/>
			<leg mode="pt"/>
			<act end_time="18:47:14" x="-4162247" y="-584282" type="work"/>
			<leg mode="pt"/>
			<act x="-4158437" y="-585273" type="home"/>
		</plan>
	</person>

	<person id="pessoa59">
		<plan>
			<act end_time="07:25:42" x="-4158000" y="-578816" type="work"/>
			<leg mode="pt"/>
			<act end_time="19:25:42" x="-4159524" y="-581462" type="home"/>
			<leg mode="pt"/>
			<act x="-4158000" y="-578816" type="work"/>
		</plan>
	</person>

	<person id="pessoa60">
		<plan>
			<act end_time="04:38:24" x="-4153799" y="-585367" type="home"/>
			<leg mode="pt"/>
			<act end_time="14:38:24" x="-4150851" y="-578657" type="work"/>
			<leg mode="pt"/>
			<act x="-4153799" y="-585367" type="home"/>
		</plan>
	</person>

	<person id="pessoa61">
		<plan>
			<act end_time="04:27:41" x="-4156796" y="-576183" type="work"/>
			<leg mode="pt"/>
			<act end_time="17:27:41" x="-4154603" y="-583605" type="home"/>
			<leg mode="pt"/>
			<act x="-4156796" y="-576183" type="work"/>
		</plan>
	</person>

	<person id="pessoa62">
		<plan>
			<act end_time="04:43:13" x="-4156343" y="-577323" type="home"/>
			<leg mode="pt"/>
			<act end_time="17:43:13" x="-4157764" y="-573638" type="work"/>
			<leg mode="pt"/>
			<act x="-4156343" y="-577323" type="home"/>
		</plan>
	</person>

	<person id="pessoa63">
		<plan>
			<act end_time="08:43:31" x="-4152693" y="-579559" type="home"/>
			<leg mode="pt"/>
			<act end_time="17:43:31" x="-4152339" y="-577846" type="work"/>
			<leg mode="pt"/>
			<act x="-4152693" y="-579559" type="home"/>
		</plan>
	</person>

	<person id="pessoa64">
		<plan>
			<act end_time="13:40:27" x="-4149919" y="-579432" type="home"/>
			<leg mode="pt"/>
			<act end_time="20:40:27" x="-4155596" y="-577150" type="work"/>
			<leg mode="pt"/>
			<act x="-4149919" y="-579432" type="home"/>
		</plan>
	</person>

	<person id="pessoa65">
		<plan>
			<act end_time="06:52:00" x="-4154499" y="-579713" type="home"/>
			<leg mode="pt"/>
			<act end_time="13:52:00" x="-4155145" y="-582670" type="shop"/>
			<leg mode="pt"/>
			<act x="-4154499" y="-579713" type="home"/>
		</plan>
	</person>

	<person id="pessoa66">
		<plan>
			<act end_time="04:35:08" x="-4161457" y="-582389" type="home"/>
			<leg mode="pt"/>
			<act end_time="17:35:08" x="-4159866" y="-573712" type="work"/>
			<leg mode="pt"/>
			<act x="-4161457" y="-582389" type="home"/>
		</plan>
	</person>

	<person id="pessoa67">
		<plan>
			<act end_time="08:57:42" x="-4157369" y="-575883" type="work"/>
			<leg mode="pt"/>
			<act end_time="19:57:42" x="-4161583" y="-585490" type="home"/>
			<leg mode="pt"/>
			<act x="-4157369" y="-575883" type="work"/>
		</plan>
	</person>

	<person id="pessoa68">
		<plan>
			<act end_time="14:46:59" x="-4161918" y="-584985" type="home"/>
			<leg mode="pt"/>
			<act end_time="20:46:59" x="-4158347" y="-573077" type="work"/>
			<leg mode="pt"/>
			<act x="-4161918" y="-584985" type="home"/>
		</plan>
	</person>

	<person id="pessoa69">
		<plan>
			<act end_time="04:11:28" x="-4160502" y="-579809" type="work"/>
			<leg mode="pt"/>
			<act end_time="18:11:28" x="-4157743" y="-576573" type="home"/>
			<leg mode="pt"/>
			<act x="-4160502" y="-579809" type="work"/>
		</plan>
	</person>

	<person id="pessoa70">
		<plan>
			<act end_time="08:26:11" x="-4156597" y="-581494" type="work"/>
			<leg mode="pt"/>
			<act end_time="19:26:11" x="-4155864" y="-580186" type="home"/>
			<leg mode="pt"/>
			<act x="-4156597" y="-581494" type="work"/>
		</plan>
	</person>

	<person id="pessoa71">
		<plan>
			<act end_time="12:50:23" x="-4154116" y="-581614" type="home"/>
			<leg mode="pt"/>
			<act end_time="20:50:23" x="-4158061" y="-576611" type="work"/>
			<leg mode="pt"/>
			<act x="-4154116" y="-581614" type="home"/>
		</plan>
	</person>

	<person id="pessoa72">
		<plan>
			<act end_time="13:38:03" x="-4154084" y="-579160" type="home"/>
			<leg mode="pt"/>
			<act end_time="17:38:03" x="-4155307" y="-575614" type="work"/>
			<leg mode="pt"/>
			<act x="-4154084" y="-579160" type="home"/>
		</plan>
	</person>

	<person id="pessoa73">
		<plan>
			<act end_time="12:20:21" x="-4155667" y="-580874" type="home"/>
			<leg mode="pt"/>
			<act end_time="19:20:21" x="-4156946" y="-575542" type="work"/>
			<leg mode="pt"/>
			<act x="-4155667" y="-580874" type="home"/>
		</plan>
	</person>

	<person id="pessoa74">
		<plan>
			<act end_time="04:59:08" x="-4154777" y="-571088" type="work"/>
			<leg mode="pt"/>
			<act end_time="18:59:08" x="-4160919" y="-578456" type="home"/>
			<leg mode="pt"/>
			<act x="-4154777" y="-571088" type="work"/>
		</plan>
	</person>

	<person id="pessoa75">
		<plan>
			<act end_time="07:36:35" x="-4163251" y="-586806" type="work"/>
			<leg mode="pt"/>
			<act end_time="20:36:35" x="-4156825" y="-583457" type="home"/>
			<leg mode="pt"/>
			<act x="-4163251" y="-586806" type="work"/>
		</plan>
	</person>

	<person id="pessoa76">
		<plan>
			<act end_time="06:17:07" x="-4154922" y="-582322" type="work"/>
			<leg mode="pt"/>
			<act end_time="22:17:07" x="-4152021" y="-577803" type="home"/>
			<leg mode="pt"/>
			<act x="-4154922" y="-582322" type="work"/>
		</plan>
	</person>

	<person id="pessoa77">
		<plan>
			<act end_time="07:48:51" x="-4151614" y="-580597" type="work"/>
			<leg mode="pt"/>
			<act end_time="18:48:51" x="-4157042" y="-575937" type="home"/>
			<leg mode="pt"/>
			<act x="-4151614" y="-580597" type="work"/>
		</plan>
	</person>

	<person id="pessoa78">
		<plan>
			<act end_time="08:59:51" x="-4158766" y="-573100" type="home"/>
			<leg mode="pt"/>
			<act end_time="14:59:51" x="-4158962" y="-574001" type="work"/>
			<leg mode="pt"/>
			<act x="-4158766" y="-573100" type="home"/>
		</plan>
	</person>

	<person id="pessoa79">
		<plan>
			<act end_time="06:05:59" x="-4158337" y="-582994" type="home"/>
			<leg mode="pt"/>
			<act end_time="14:05:59" x="-4154911" y="-580708" type="work"/>
			<leg mode="pt"/>
			<act end_time="17:05:59" x="-4160660" y="-576933" type="shop"/>
			<leg mode="pt"/>
			<act x="-4158337" y="-582994" type="home"/>
		</plan>
	</person>

	<person id="pessoa80">
		<plan>
			<act end_time="12:25:06" x="-4153912" y="-579364" type="home"/>
			<leg mode="pt"/>
			<act end_time="19:25:06" x="-4161645" y="-572125" type="shop"/>
			<leg mode="pt"/>
			<act x="-4153912" y="-579364" type="home"/>
		</plan>
	</person>

	<person id="pessoa81">
		<plan>
			<act end_time="08:35:11" x="-4159625" y="-576845" type="home"/>
			<leg mode="pt"/>
			<act end_time="11:35:11" x="-4157000" y="-581401" type="shop"/>
			<leg mode="pt"/>
			<act x="-4159625" y="-576845" type="home"/>
		</plan>
	</person>

	<person id="pessoa82">
		<plan>
			<act end_time="05:16:30" x="-4155572" y="-580294" type="home"/>
			<leg mode="pt"/>
			<act end_time="11:16:30" x="-4160781" y="-579892" type="shop"/>
			<leg mode="pt"/>
			<act x="-4155572" y="-580294" type="home"/>
		</plan>
	</person>

	<person id="pessoa83">
		<plan>
			<act end_time="06:30:40" x="-4151836" y="-579132" type="home"/>
			<leg mode="pt"/>
			<act end_time="13:30:40" x="-4159469" y="-578458" type="work"/>
			<leg mode="pt"/>
			<act end_time="19:30:40" x="-4163405" y="-584673" type="shop"/>
			<leg mode="pt"/>
			<act x="-4151836" y="-579132" type="home"/>
		</plan>
	</person>

	<person id="pessoa84">
		<plan>
			<act end_time="04:53:20" x="-4159598" y="-574343" type="work"/>
			<leg mode="pt"/>
			<act end_time="18:53:20" x="-4153072" y="-579322" type="home"/>
			<leg mode="pt"/>
			<act x="-4159598" y="-574343" type="work"/>
		</plan>
	</person>

	<person id="pessoa85">
		<plan>
			<act end_time="08:19:26" x="-4152949" y="-577375" type="home"/>
			<leg mode="pt"/>
			<act end_time="19:19:26" x="-4159140" y="-581055" type="shop"/>
			<leg mode="pt"/>
			<act x="-4152949" y="-577375" type="home"/>
		</plan>
	</person>

	<person id="pessoa86">
		<plan>
			<act end_time="14:22:15" x="-4158129" y="-574650" type="home"/>
			<leg mode="pt"/>
			<act end_time="19:22:15" x="-4158186" y="-578391" type="work"/>
			<leg mode="pt"/>
			<act x="-4158129" y="-574650" type="home"/>
		</plan>
	</person>

	<person id="pessoa87">
		<plan>
			<act end_time="08:18:09" x="-4162259" y="-585118" type="home"/>
			<leg mode="pt"/>
			<act end_time="18:18:09" x="-4159040" y="-572687" type="work"/>
			<leg mode="pt"/>
			<act x="-4162259" y="-585118" type="home"/>
		</plan>
	</person>

	<person id="pessoa88">
		<plan>
			<act end_time="06:25:46" x="-4160133" y="-579316" type="home"/>
			<leg mode="pt"/>
			<act end_time="19:25:46" x="-4161255" y="-578145" type="shop"/>
			<leg mode="pt"/>
			<act x="-4160133" y="-579316" type="home"/>
		</plan>
	</person>

	<person id="pessoa89">
		<plan>
			<act end_time="14:49:31" x="-4150647" y="-581371" type="home"/>
			<leg mode="pt"/>
			<act end_time="20:49:31" x="-4153986" y="-579976" type="work"/>
			<leg mode="pt"/>
			<act x="-4150647" y="-581371" type="home"/>
		</plan>
	</person>

	<person id="pessoa90">
		<plan>
			<act end_time="14:34:29" x="-4162756" y="-587201" type="home"/>
			<leg mode="pt"/>
			<act end_time="20:34:29" x="-4154004" y="-584958" type="shop"/>
			<leg mode="pt"/>
			<act x="-4162756" y="-587201" type="home"/>
		</plan>
	</person>

	<person id="pessoa91">
		<plan>
			<act end_time="04:08:38" x="-4153339" y="-578309" type="home"/>
			<leg mode="pt"/>
			<act end_time="13:08:38" x="-4160490" y="-577399" type="work"/>
			<leg mode="pt"/>
			<act end_time="19:08:38" x="-4152717" y="-578904" type="shop"/>
			<leg mode="pt"/>
			<act x="-4153339" y="-578309" type="home"/>
		</plan>
	</person>

	<person id="pessoa92">
		<plan>
			<act end_time="06:54:53" x="-4155337" y="-583117" type="home"/>
			<leg mode="pt"/>
			<act end_time="20:54:53" x="-4150664" y="-581464" type="work"/>
			<leg mode="pt"/>
			<act x="-4155337" y="-583117" type="home"/>
		</plan>
	</person>

	<person id="pessoa93">
		<plan>
			<act end_time="06:29:21" x="-4158276" y="-573173" type="home"/>
			<leg mode="pt"/>
			<act end_time="21:29:21" x="-4154327" y="-579912" type="work"/>
			<leg mode="pt"/>
			<act x="-4158276" y="-573173" type="home"/>
		</plan>
	</person>

	<person id="pessoa94">
		<plan>
			<act end_time="07:44:29" x="-4151982" y="-581090" type="home"/>
			<leg mode="pt"/>
			<act end_time="13:44:29" x="-4162592" y="-584191" type="work"/>
			<leg mode="pt"/>
			<act x="-4151982" y="-581090" type="home"/>
		</plan>
	</person>

	<person id="pessoa95">
		<plan>
			<act end_time="07:57:47" x="-4154648" y="-583870" type="home"/>
			<leg mode="pt"/>
			<act end_time="12:57:47" x="-4160812" y="-577050" type="shop"/>
			<leg mode="pt"/>
			<act x="-4154648" y="-583870" type="home"/>
		</plan>
	</person>

	<person id="pessoa96">
		<plan>
			<act end_time="05:06:18" x="-4155980" y="-576699" type="home"/>
			<leg mode="pt"/>
			<act end_time="11:06:18" x="-4157543" y="-576664" type="work"/>
			<leg mode="pt"/>
			<act end_time="21:06:18" x="-4160595" y="-579392" type="shop"/>
			<leg mode="pt"/>
			<act x="-4155980" y="-576699" type="home"/>
		</plan>
	</person>

	<person id="pessoa97">
		<plan>
			<act end_time="05:44:01" x="-4156006" y="-579664" type="home"/>
			<leg mode="pt"/>
			<act end_time="19:44:01" x="-4157739" y="-579643" type="shop"/>
			<leg mode="pt"/>
			<act x="-4156006" y="-579664" type="home"/>
		</plan>
	</person>

	<person id="pessoa98">
		<plan>
			<act end_time="13:12:25" x="-4159452" y="-576302" type="home"/>
			<leg mode="pt"/>
			<act end_time="21:12:25" x="-4151899" y="-577751" type="work"/>
			<leg mode="pt"/>
			<act x="-4159452" y="-576302" type="home"/>
		</plan>
	</person>

	<person id="pessoa99">
		<plan>
			<act end_time="04:37:36" x="-4154899" y="-571307" type="work"/>
			<leg mode="pt"/>
			<act end_time="18:37:36" x="-4149627" y="-572373" type="home"/>
			<leg mode="pt"/>
			<act x="-4154899" y="-571307" type="work"/>
		</plan>
	</person>

	<person id="pessoa100">
		<plan>
			<act end_time="06:49:40" x="-4158009" y="-578338" type="work"/>
			<leg mode="pt"/>
			<act end_time="22:49:40" x="-4156419" y="-574999" type="home"/>
			<leg mode="pt"/>
			<act x="-4158009" y="-578338" type="work"/>
		</plan>
	</person>

	<person id="pessoa101">
		<plan>
			<act end_time="07:23:30" x="-4154498" y="-581727" type="work"/>
			<leg mode="pt"/>
			<act end_time="18:23:30" x="-4163511" y="-586680" type="home"/>
			<leg mode="pt"/>
			<act x="-4154498" y="-581727" type="work"/>
		</plan>
	</person>

	<person id="pessoa102">
		<plan>
			<act end_time="11:25:13" x="-4153654" y="-585503" type="home"/>
			<leg mode="pt"/>
			<act end_time="22:25:13" x="-4157497" y="-573246" type="work"/>
			<leg mode="pt"/>
			<act x="-4153654" y="-585503" type="home"/>
		</plan>
	</person>

	<person id="pessoa103">
		<plan>
			<act end_time="08:08:18" x="-4151694" y="-579323" type="work"/>
			<leg mode="pt"/>
			<act end_time="17:08:18" x="-4158310" y="-574535" type="home"/>
			<leg mode="pt"/>
			<act x="-4151694" y="-579323" type="work"/>
		</plan>
	</person>

	<person id="pessoa104">
		<plan>
			<act end_time="08:41:23" x="-4152191" y="-578529" type="home"/>
			<leg mode="pt"/>
			<act end_time="11:41:23" x="-4153561" y="-580861" type="shop"/>
			<leg mode="pt"/>
			<act x="-4152191" y="-578529" type="home"/>
		</plan>
	</person>

	<person id="pessoa105">
		<plan>
			<act end_time="06:40:52" x="-4158770" y="-578334" type="home"/>
			<leg mode="pt"/>
			<act end_time="14:40:52" x="-4153735" y="-579957" type="work"/>
			<leg mode="pt"/>
			<act end_time="17:40:52" x="-4160846" y="-576749" type="shop"/>
			<leg mode="pt"/>