<?xml version="1.0" encoding="utf-8"?>
<!DOCTYPE facilities SYSTEM "http://www.matsim.org/files/dtd/facilities_v1.dtd">

<facilities>

	<facility id="casaPessoa0" x="-4159302" y="-573256"/>
	<facility id="loja0" x="-4153818" y="-583460"/>

	<facility id="casaPessoa1" x="-4154621" y="-582753"/>
	<facility id="trabalho1" x="-4163051" y="-586746"/>
	<facility id="loja1" x="-4162338" y="-584977"/>
	<facility id="casaDeNinguem1" x="-4162338" y="-584977"/>

	<facility id="casaPessoa2" x="-4157480" y="-574017"/>
	<facility id="trabalho2" x="-4149938" y="-574056"/>
	<facility id="loja2" x="-4158664" y="-574140"/>

	<facility id="casaPessoa3" x="-4157912" y="-580180"/>
	<facility id="trabalho3" x="-4159684" y="-578223"/>
	<facility id="loja3" x="-4151948" y="-577776"/>
	<facility id="casaDeNinguem3" x="-4151948" y="-577776"/>

	<facility id="casaPessoa4" x="-4156047" y="-579772"/>
	<facility id="trabalho4" x="-4155537" y="-582100"/>
	<facility id="casaDeNinguem4" x="-4157983" y="-578688"/>

	<facility id="casaPessoa5" x="-4157057" y="-581292"/>
	<facility id="trabalho5" x="-4154059" y="-583892"/>
	<facility id="casaDeNinguem5" x="-4154320" y="-580152"/>

	<facility id="casaPessoa6" x="-4155728" y="-580031"/>
	<facility id="loja6" x="-4158220" y="-576662"/>

	<facility id="casaPessoa7" x="-4152144" y="-578475"/>
	<facility id="trabalho7" x="-4152686" y="-578600"/>
	<facility id="loja7" x="-4160494" y="-579861"/>

	<facility id="casaPessoa8" x="-4158729" y="-575935"/>
	<facility id="loja8" x="-4157148" y="-573330"/>
	<facility id="casaDeNinguem8" x="-4157148" y="-573330"/>

	<facility id="casaPessoa9" x="-4150624" y="-578755"/>
	<facility id="trabalho9" x="-4157750" y="-578731"/>
	<facility id="loja9" x="-4158744" y="-577336"/>
	<facility id="casaDeNinguem9" x="-4158744" y="-577336"/>

	<facility id="casaPessoa10" x="-4152913" y="-577522"/>
	<facility id="casaDeNinguem10" x="-4158492" y="-580447"/>

	<facility id="casaPessoa11" x="-4161275" y="-579010"/>
	<facility id="trabalho11" x="-4151539" y="-579168"/>
	<facility id="loja11" x="-4151744" y="-581661"/>
	<facility id="casaDeNinguem11" x="-4151744" y="-581661"/>

	<facility id="casaPessoa12" x="-4160502" y="-578127"/>
	<facility id="trabalho12" x="-4152136" y="-580367"/>
	<facility id="loja12" x="-4154602" y="-584535"/>

	<facility id="casaPessoa13" x="-4152983" y="-583658"/>
	<facility id="casaDeNinguem13" x="-4155782" y="-582119"/>

	<facility id="casaPessoa14" x="-4157540" y="-576041"/>
	<facility id="trabalho14" x="-4158830" y="-575298"/>
	<facility id="loja14" x="-4159866" y="-578284"/>

	<facility id="casaPessoa15" x="-4159686" y="-579770"/>
	<facility id="trabalho15" x="-4156812" y="-574823"/>
	<facility id="loja15" x="-4153569" y="-583193"/>
	<facility id="casaDeNinguem15" x="-4153569" y="-583193"/>

	<facility id="casaPessoa16" x="-4157625" y="-574815"/>
	<facility id="casaDeNinguem16" x="-4155968" y="-580374"/>

	<facility id="casaPessoa17" x="-4156377" y="-574861"/>
	<facility id="trabalho17" x="-4160008" y="-581293"/>
	<facility id="loja17" x="-4151277" y="-579364"/>
	<facility id="casaDeNinguem17" x="-4151277" y="-579364"/>

	<facility id="casaPessoa18" x="-4154805" y="-573775"/>
	<facility id="casaDeNinguem18" x="-4160292" y="-576727"/>

	<facility id="casaPessoa19" x="-4157087" y="-582505"/>
	<facility id="loja19" x="-4153070" y="-580459"/>

	<facility id="casaPessoa20" x="-4159982" y="-578799"/>
	<facility id="loja20" x="-4155755" y="-582778"/>
	<facility id="casaDeNinguem20" x="-4155755" y="-582778"/>

	<facility id="casaPessoa21" x="-4153814" y="-584281"/>
	<facility id="trabalho21" x="-4156658" y="-582053"/>

	<facility id="casaPessoa22" x="-4155728" y="-570134"/>
	<facility id="loja22" x="-4157559" y="-579014"/>
	<facility id="casaDeNinguem22" x="-4157559" y="-579014"/>

	<facility id="casaPessoa23" x="-4162698" y="-579900"/>
	<facility id="trabalho23" x="-4160532" y="-578214"/>
	<facility id="loja23" x="-4154458" y="-584615"/>

	<facility id="casaPessoa24" x="-4161394" y="-571948"/>
	<facility id="trabalho24" x="-4164087" y="-577169"/>
	<facility id="loja24" x="-4156841" y="-574966"/>

	<facility id="casaPessoa25" x="-4158859" y="-573695"/>
	<facility id="trabalho25" x="-4163758" y="-584791"/>
	<facility id="loja25" x="-4155493" y="-571438"/>

	<facility id="casaPessoa26" x="-4153373" y="-579813"/>
	<facility id="loja26" x="-4160247" y="-579918"/>
	<facility id="casaDeNinguem26" x="-4160247" y="-579918"/>

	<facility id="casaPessoa27" x="-4157080" y="-579190"/>
	<facility id="trabalho27" x="-4160281" y="-579572"/>
	<facility id="loja27" x="-4157640" y="-572964"/>
	<facility id="casaDeNinguem27" x="-4157640" y="-572964"/>

	<facility id="casaPessoa28" x="-4156258" y="-575826"/>
	<facility id="loja28" x="-4163539" y="-586862"/>

	<facility id="casaPessoa29" x="-4152969" y="-580794"/>
	<facility id="trabalho29" x="-4154388" y="-573704"/>
	<facility id="loja29" x="-4152538" y="-579844"/>

	<facility id="casaPessoa30" x="-4153222" y="-583769"/>
	<facility id="loja30" x="-4156298" y="-582224"/>

	<facility id="casaPessoa31" x="-4154852" y="-585665"/>
	<facility id="trabalho31" x="-4151237" y="-578527"/>
	<facility id="loja31" x="-4154944" y="-570975"/>

	<facility id="casaPessoa32" x="-4154120" y="-581140"/>
	<facility id="loja32" x="-4152225" y="-578969"/>

	<facility id="casaPessoa33" x="-4158012" y="-573108"/>
	<facility id="trabalho33" x="-4161038" y="-578654"/>
	<facility id="casaDeNinguem33" x="-4154497" y="-584587"/>

	<facility id="casaPessoa34" x="-4162731" y="-586819"/>
	<facility id="trabalho34" x="-4156235" y="-576909"/>
	<facility id="casaDeNinguem34" x="-4152340" y="-580859"/>

	<facility id="casaPessoa35" x="-4154996" y="-570669"/>
	<facility id="loja35" x="-4151868" y="-578906"/>

	<facility id="casaPessoa36" x="-4155855" y="-576377"/>
	<facility id="loja36" x="-4150562" y="-574892"/>

	<facility id="casaPessoa37" x="-4152726" y="-580477"/>
	<facility id="trabalho37" x="-4155152" y="-582060"/>
	<facility id="casaDeNinguem37" x="-4158382" y="-574386"/>

	<facility id="casaPessoa38" x="-4160329" y="-578887"/>
	<facility id="loja38" x="-4163011" y="-586910"/>

	<facility id="casaPessoa39" x="-4159127" y="-575903"/>
	<facility id="trabalho39" x="-4155202" y="-581958"/>
	<facility id="loja39" x="-4156547" y="-573662"/>

	<facility id="casaPessoa40" x="-4159385" y="-577907"/>
	<facility id="trabalho40" x="-4159229" y="-572841"/>
	<facility id="loja40" x="-4155161" y="-582348"/>
	<facility id="casaDeNinguem40" x="-4155161" y="-582348"/>

	<facility id="casaPessoa41" x="-4154066" y="-580572"/>
	<facility id="casaDeNinguem41" x="-4158685" y="-574118"/>

	<facility id="casaPessoa42" x="-4158364" y="-575850"/>
	<facility id="trabalho42" x="-4160024" y="-579921"/>
	<facility id="loja42" x="-4158034" y="-573693"/>
	<facility id="casaDeNinguem42" x="-4158034" y="-573693"/>

	<facility id="casaPessoa43" x="-4157601" y="-575747"/>
	<facility id="casaDeNinguem43" x="-4160503" y="-577831"/>

	<facility id="casaPessoa44" x="-4157593" y="-576543"/>
	<facility id="casaDeNinguem44" x="-4160357" y="-579821"/>

	<facility id="casaPessoa45" x="-4158013" y="-574232"/>
	<facility id="casaDeNinguem45" x="-4153699" y="-583363"/>

	<facility id="casaPessoa46" x="-4158656" y="-575599"/>
	<facility id="trabalho46" x="-4156471" y="-571701"/>
	<facility id="casaDeNinguem46" x="-4156345" y="-578333"/>

	<facility id="casaPessoa47" x="-4152559" y="-579753"/>
	<facility id="trabalho47" x="-4156138" y="-582876"/>

	<facility id="casaPessoa48" x="-4157282" y="-580148"/>
	<facility id="trabalho48" x="-4156304" y="-579647"/>
	<facility id="loja48" x="-4155649" y="-575710"/>
	<facility id="casaDeNinguem48" x="-4155649" y="-575710"/>

	<facility id="casaPessoa49" x="-4151137" y="-577983"/>
	<facility id="casaDeNinguem49" x="-4150911" y="-582463"/>

	<facility id="casaPessoa50" x="-4157592" y="-577603"/>
	<facility id="loja50" x="-4156473" y="-581167"/>
	<facility id="casaDeNinguem50" x="-4156473" y="-581167"/>

	<facility id="casaPessoa51" x="-4155523" y="-583113"/>
	<facility id="trabalho51" x="-4151988" y="-578231"/>
	<facility id="loja51" x="-4157586" y="-583050"/>

	<facility id="casaPessoa52" x="-4159284" y="-580530"/>
	<facility id="trabalho52" x="-4156867" y="-582175"/>
	<facility id="casaDeNinguem52" x="-4157303" y="-579121"/>

	<facility id="casaPessoa53" x="-4157161" y="-574030"/>
	<facility id="trabalho53" x="-4158956" y="-573933"/>

	<facility id="casaPessoa54" x="-4153094" y="-584040"/>
	<facility id="trabalho54" x="-4156564" y="-574722"/>
	<facility id="loja54" x="-4155187" y="-585448"/>

	<facility id="casaPessoa55" x="-4150596" y="-579820"/>
	<facility id="trabalho55" x="-4156662" y="-576258"/>
	<facility id="casaDeNinguem55" x="-4158467" y="-579911"/>

	<facility id="casaPessoa56" x="-4157821" y="-573518"/>
	<facility id="loja56" x="-4159330" y="-577760"/>
	<facility id="casaDeNinguem56" x="-4159330" y="-577760"/>

	<facility id="casaPessoa57" x="-4159829" y="-575250"/>
	<facility id="casaDeNinguem57" x="-4161939" y="-584598"/>

	<facility id="casaPessoa58" x="-4150471" y="-581950"/>
	<facility id="loja58" x="-4151802" y="-578581"/>
	<facility id="casaDeNinguem58" x="-4151802" y="-578581"/>

	<facility id="casaPessoa59" x="-4153579" y="-583259"/>
	<facility id="trabalho59" x="-4156386" y="-580748"/>
	<facility id="loja59" x="-4155889" y="-571175"/>
	<facility id="casaDeNinguem59" x="-4155889" y="-571175"/>

	<facility id="casaPessoa60" x="-4158437" y="-579779"/>
	<facility id="trabalho60" x="-4156561" y="-575138"/>

	<facility id="casaPessoa61" x="-4159721" y="-578416"/>
	<facility id="loja61" x="-4157805" y="-572832"/>
	<facility id="casaDeNinguem61" x="-4157805" y="-572832"/>

	<facility id="casaPessoa62" x="-4160784" y="-577418"/>
	<facility id="loja62" x="-4160622" y="-576480"/>

	<facility id="casaPessoa63" x="-4159255" y="-573241"/>
	<facility id="trabalho63" x="-4152536" y="-579107"/>

	<facility id="casaPessoa64" x="-4157436" y="-577420"/>
	<facility id="loja64" x="-4158822" y="-577006"/>

	<facility id="casaPessoa65" x="-4160434" y="-578563"/>
	<facility id="trabalho65" x="-4158083" y="-573152"/>
	<facility id="loja65" x="-4157227" y="-576970"/>
	<facility id="casaDeNinguem65" x="-4157227" y="-576970"/>

	<facility id="casaPessoa66" x="-4161124" y="-572217"/>
	<facility id="trabalho66" x="-4159085" y="-578533"/>
	<facility id="loja66" x="-4155490" y="-570288"/>

	<facility id="casaPessoa67" x="-4156064" y="-580804"/>
	<facility id="loja67" x="-4155363" y="-582231"/>

	<facility id="casaPessoa68" x="-4156857" y="-576839"/>
	<facility id="trabalho68" x="-4154989" y="-582856"/>
	<facility id="loja68" x="-4153731" y="-580688"/>

	<facility id="casaPessoa69" x="-4154083" y="-579631"/>
	<facility id="trabalho69" x="-4159986" y="-581242"/>
	<facility id="casaDeNinguem69" x="-4152025" y="-579341"/>

	<facility id="casaPessoa70" x="-4159960" y="-574523"/>
	<facility id="loja70" x="-4159502" y="-578547"/>
	<facility id="casaDeNinguem70" x="-4159502" y="-578547"/>

	<facility id="casaPessoa71" x="-4154865" y="-580456"/>
	<facility id="trabalho71" x="-4159506" y="-573111"/>
	<facility id="loja71" x="-4160287" y="-571335"/>

	<facility id="casaPessoa72" x="-4161156" y="-578701"/>
	<facility id="trabalho72" x="-4154819" y="-579850"/>
	<facility id="loja72" x="-4158453" y="-575086"/>

	<facility id="casaPessoa73" x="-4161268" y="-578539"/>
	<facility id="trabalho73" x="-4151434" y="-580617"/>
	<facility id="loja73" x="-4154829" y="-582544"/>

	<facility id="casaPessoa74" x="-4159027" y="-577378"/>
	<facility id="trabalho74" x="-4157234" y="-581085"/>
	<facility id="loja74" x="-4160504" y="-571630"/>

	<facility id="casaPessoa75" x="-4161129" y="-582585"/>
	<facility id="loja75" x="-4153261" y="-578640"/>
	<facility id="casaDeNinguem75" x="-4153261" y="-578640"/>

	<facility id="casaPessoa76" x="-4153448" y="-585381"/>
	<facility id="trabalho76" x="-4156228" y="-583439"/>

	<facility id="casaPessoa77" x="-4156954" y="-573558"/>
	<facility id="trabalho77" x="-4152731" y="-578281"/>
	<facility id="loja77" x="-4154484" y="-581661"/>
	<facility id="casaDeNinguem77" x="-4154484" y="-581661"/>

	<facility id="casaPessoa78" x="-4159858" y="-577833"/>
	<facility id="trabalho78" x="-4149594" y="-572447"/>
	<facility id="loja78" x="-4150252" y="-581658"/>
	<facility id="casaDeNinguem78" x="-4150252" y="-581658"/>

	<facility id="casaPessoa79" x="-4153287" y="-580497"/>
	<facility id="trabalho79" x="-4160172" y="-578532"/>
	<facility id="loja79" x="-4156310" y="-579723"/>

	<facility id="casaPessoa80" x="-4158926" y="-573722"/>
	<facility id="loja80" x="-4155177" y="-579995"/>

	<facility id="casaPessoa81" x="-4153359" y="-578079"/>
	<facility id="trabalho81" x="-4156953" y="-580755"/>
	<facility id="loja81" x="-4162687" y="-587237"/>
	<facility id="casaDeNinguem81" x="-4162687" y="-587237"/>

	<facility id="casaPessoa82" x="-4156131" y="-582125"/>
	<facility id="casaDeNinguem82" x="-4153073" y="-578376"/>

	<facility id="casaPessoa83" x="-4154714" y="-581971"/>
	<facility id="trabalho83" x="-4154846" y="-582864"/>

	<facility id="casaPessoa84" x="-4152241" y="-578467"/>
	<facility id="loja84" x="-4153325" y="-578422"/>
	<facility id="casaDeNinguem84" x="-4153325" y="-578422"/>

	<facility id="casaPessoa85" x="-4153169" y="-581057"/>
	<facility id="loja85" x="-4156755" y="-583255"/>
	<facility id="casaDeNinguem85" x="-4156755" y="-583255"/>

	<facility id="casaPessoa86" x="-4149046" y="-576721"/>
	<facility id="trabalho86" x="-4158835" y="-574960"/>
	<facility id="loja86" x="-4157251" y="-581214"/>

	<facility id="casaPessoa87" x="-4156148" y="-581490"/>
	<facility id="trabalho87" x="-4159619" y="-576155"/>
	<facility id="loja87" x="-4159952" y="-578634"/>
	<facility id="casaDeNinguem87" x="-4159952" y="-578634"/>

	<facility id="casaPessoa88" x="-4155837" y="-581699"/>
	<facility id="casaDeNinguem88" x="-4159069" y="-573078"/>

	<facility id="casaPessoa89" x="-4150064" y="-574244"/>
	<facility id="loja89" x="-4160151" y="-576510"/>

	<facility id="casaPessoa90" x="-4162301" y="-585024"/>
	<facility id="trabalho90" x="-4158832" y="-575884"/>
	<facility id="loja90" x="-4162953" y="-584129"/>

	<facility id="casaPessoa91" x="-4159423" y="-573698"/>
	<facility id="casaDeNinguem91" x="-4160982" y="-572681"/>

	<facility id="casaPessoa92" x="-4152735" y="-578974"/>
	<facility id="trabalho92" x="-4152318" y="-577929"/>

	<facility id="casaPessoa93" x="-4155385" y="-584540"/>
	<facility id="trabalho93" x="-4154519" y="-579458"/>
	<facility id="loja93" x="-4158130" y="-575051"/>

	<facility id="casaPessoa94" x="-4155824" y="-580924"/>
	<facility id="trabalho94" x="-4156581" y="-582527"/>
	<facility id="loja94" x="-4150754" y="-581423"/>

	<facility id="casaPessoa95" x="-4160227" y="-574732"/>
	<facility id="casaDeNinguem95" x="-4160343" y="-579461"/>

	<facility id="casaPessoa96" x="-4160180" y="-579801"/>
	<facility id="trabalho96" x="-4153673" y="-578940"/>
	<facility id="loja96" x="-4152920" y="-578433"/>

	<facility id="casaPessoa97" x="-4159601" y="-578676"/>
	<facility id="trabalho97" x="-4154407" y="-579822"/>
	<facility id="loja97" x="-4154304" y="-579872"/>

	<facility id="casaPessoa98" x="-4155550" y="-575771"/>
	<facility id="trabalho98" x="-4159622" y="-576105"/>
	<facility id="casaDeNinguem98" x="-4158857" y="-576205"/>

	<facility id="casaPessoa99" x="-4157224" y="-573322"/>
	<facility id="trabalho99" x="-4158808" y="-581061"/>
	<facility id="loja99" x="-4155073" y="-584342"/>

	<facility id="casaPessoa100" x="-4152813" y="-581223"/>
	<facility id="trabalho100" x="-4157288" y="-582948"/>
	<facility id="loja100" x="-4152044" y="-578160"/>
	<facility id="casaDeNinguem100" x="-4152044" y="-578160"/>

	<facility id="casaPessoa101" x="-4157875" y="-574613"/>
	<facility id="trabalho101" x="-4157316" y="-576920"/>
	<facility id="loja101" x="-4162576" y="-579951"/>

	<facility id="casaPessoa102" x="-4161143" y="-582553"/>
	<facility id="trabalho102" x="-4156035" y="-579855"/>
	<facility id="loja102" x="-4152981" y="-578422"/>

	<facility id="casaPessoa103" x="-4155721" y="-580628"/>
	<facility id="trabalho103" x="-4157245" y="-583483"/>
	<facility id="loja103" x="-4152088" y="-581224"/>

	<facility id="casaPessoa104" x="-4160154" y="-579897"/>
	<facility id="trabalho104" x="-4156605" y="-577730"/>

	<facility id="casaPessoa105" x="-4157783" y="-572898"/>
	<facility id="trabalho105" x="-4157662" y="-582692"/>
	<facility id="loja105" x="-4151788" y="-579281"/>
	<facility id="casaDeNinguem105" x="-4151788" y="-579281"/>

	<facility id="casaPessoa106" x="-4155012" y="-584844"/>
	<facility id="trabalho106" x="-4158371" y="-579642"/>
	<facility id="loja106" x="-4160232" y="-570309"/>
	<facility id="casaDeNinguem106" x="-4160232" y="-570309"/>

	<facility id="casaPessoa107" x="-4156139" y="-573894"/>
	<facility id="trabalho107" x="-4158770" y="-574813"/>
	<facility id="loja107" x="-4161981" y="-584585"/>
	<facility id="casaDeNinguem107" x="-4161981" y="-584585"/>

	<facility id="casaPessoa108" x="-4158821" y="-573587"/>
	<facility id="loja108" x="-4155049" y="-571021"/>

	<facility id="casaPessoa109" x="-4158034" y="-580141"/>
	<facility id="trabalho109" x="-4160586" y="-579407"/>

	<facility id="casaPessoa110" x="-4156608" y="-581628"/>
	<facility id="trabalho110" x="-4157121" y="-582548"/>
	<facility id="loja110" x="-4155519" y="-581705"/>

	<facility id="casaPessoa111" x="-4159479" y="-574564"/>
	<facility id="casaDeNinguem111" x="-4161138" y="-571982"/>

	<facility id="casaPessoa112" x="-4152641" y="-579086"/>
	<facility id="trabalho112" x="-4152671" y="-578577"/>
	<facility id="casaDeNinguem112" x="-4160124" y="-578565"/>

	<facility id="casaPessoa113" x="-4154070" y="-581184"/>
	<facility id="trabalho113" x="-4160924" y="-572175"/>
	<facility id="loja113" x="-4157486" y="-577695"/>
	<facility id="casaDeNinguem113" x="-4157486" y="-577695"/>

	<facility id="casaPessoa114" x="-4151707" y="-581529"/>
	<facility id="trabalho114" x="-4150858" y="-578324"/>
	<facility id="loja114" x="-4155950" y="-582086"/>
	<facility id="casaDeNinguem114" x="-4155950" y="-582086"/>

	<facility id="casaPessoa115" x="-4152547" y="-578181"/>
	<facility id="trabalho115" x="-4150739" y="-579006"/>
	<facility id="loja115" x="-4152661" y="-578554"/>

	<facility id="casaPessoa116" x="-4156347" y="-574563"/>
	<facility id="trabalho116" x="-4153045" y="-579821"/>
	<facility id="loja116" x="-4161851" y="-584604"/>
	<facility id="casaDeNinguem116" x="-4161851" y="-584604"/>

	<facility id="casaPessoa117" x="-4155511" y="-584631"/>
	<facility id="loja117" x="-4156806" y="-575482"/>
	<facility id="casaDeNinguem117" x="-4156806" y="-575482"/>

	<facility id="casaPessoa118" x="-4157499" y="-577705"/>
	<facility id="trabalho118" x="-4159802" y="-578048"/>

	<facility id="casaPessoa119" x="-4156094" y="-577997"/>
	<facility id="casaDeNinguem119" x="-4163903" y="-586506"/>

	<facility id="casaPessoa120" x="-4154047" y="-580167"/>
	<facility id="trabalho120" x="-4154481" y="-582481"/>

	<facility id="casaPessoa121" x="-4161240" y="-572051"/>
	<facility id="casaDeNinguem121" x="-4156620" y="-580917"/>

	<facility id="casaPessoa122" x="-4154110" y="-579529"/>
	<facility id="loja122" x="-4158930" y="-574725"/>
	<facility id="casaDeNinguem122" x="-4158930" y="-574725"/>

	<facility id="casaPessoa123" x="-4160184" y="-570830"/>
	<facility id="casaDeNinguem123" x="-4157266" y="-578533"/>

	<facility id="casaPessoa124" x="-4159667" y="-574230"/>
	<facility id="loja124" x="-4157715" y="-576591"/>
	<facility id="casaDeNinguem124" x="-4157715" y="-576591"/>

	<facility id="casaPessoa125" x="-4155087" y="-583336"/>
	<facility id="trabalho125" x="-4152788" y="-579958"/>
	<facility id="loja125" x="-4161363" y="-578848"/>

	<facility id="casaPessoa126" x="-4161199" y="-578917"/>
	<facility id="trabalho126" x="-4152374" y="-580541"/>
	<facility id="casaDeNinguem126" x="-4161056" y="-572943"/>

	<facility id="casaPessoa127" x="-4164360" y="-577987"/>
	<facility id="trabalho127" x="-4156104" y="-580338"/>
	<facility id="loja127" x="-4152949" y="-578356"/>
	<facility id="casaDeNinguem127" x="-4152949" y="-578356"/>

	<facility id="casaPessoa128" x="-4152405" y="-577993"/>
	<facility id="trabalho128" x="-4154567" y="-582682"/>
	<facility id="loja128" x="-4159999" y="-579920"/>
	<facility id="casaDeNinguem128" x="-4159999" y="-579920"/>

	<facility id="casaPessoa129" x="-4155588" y="-570773"/>
	<facility id="casaDeNinguem129" x="-4157514" y="-579396"/>

	<facility id="casaPessoa130" x="-4154709" y="-584027"/>
	<facility id="trabalho130" x="-4156202" y="-580946"/>
	<facility id="loja130" x="-4161530" y="-579044"/>
	<facility id="casaDeNinguem130" x="-4161530" y="-579044"/>

	<facility id="casaPessoa131" x="-4156008" y="-584328"/>
	<facility id="trabalho131" x="-4152764" y="-584941"/>
	<facility id="loja131" x="-4152368" y="-578349"/>
	<facility id="casaDeNinguem131" x="-4152368" y="-578349"/>

	<facility id="casaPessoa132" x="-4156012" y="-580283"/>
	<facility id="loja132" x="-4158603" y="-576087"/>

	<facility id="casaPessoa133" x="-4156111" y="-576246"/>
	<facility id="casaDeNinguem133" x="-4157051" y="-582323"/>

	<facility id="casaPessoa134" x="-4159126" y="-574207"/>
	<facility id="trabalho134" x="-4161446" y="-572048"/>
	<facility id="loja134" x="-4155325" y="-584600"/>

	<facility id="casaPessoa135" x="-4164365" y="-577786"/>
	<facility id="trabalho135" x="-4157393" y="-577180"/>
	<facility id="loja135" x="-4161674" y="-579031"/>
	<facility id="casaDeNinguem135" x="-4161674" y="-579031"/>

	<facility id="casaPessoa136" x="-4158330" y="-578977"/>
	<facility id="casaDeNinguem136" x="-4154384" y="-581036"/>

	<facility id="casaPessoa137" x="-4157039" y="-575721"/>
	<facility id="trabalho137" x="-4158375" y="-572987"/>
	<facility id="loja137" x="-4159732" y="-574164"/>

	<facility id="casaPessoa138" x="-4155232" y="-581511"/>
	<facility id="trabalho138" x="-4156118" y="-577788"/>
	<facility id="loja138" x="-4158320" y="-573883"/>

	<facility id="casaPessoa139" x="-4162647" y="-580014"/>
	<facility id="trabalho139" x="-4157478" y="-581466"/>
	<facility id="loja139" x="-4154430" y="-582907"/>

	<facility id="casaPessoa140" x="-4155336" y="-582297"/>
	<facility id="trabalho140" x="-4159936" y="-579994"/>
	<facility id="loja140" x="-4160633" y="-580354"/>

	<facility id="casaPessoa141" x="-4160906" y="-578417"/>
	<facility id="trabalho141" x="-4158843" y="-573277"/>
	<facility id="loja141" x="-4151431" y="-580678"/>
	<facility id="casaDeNinguem141" x="-4151431" y="-580678"/>

	<facility id="casaPessoa142" x="-4155170" y="-583975"/>
	<facility id="trabalho142" x="-4162521" y="-579782"/>
	<facility id="loja142" x="-4150898" y="-581028"/>
	<facility id="casaDeNinguem142" x="-4150898" y="-581028"/>

	<facility id="casaPessoa143" x="-4160398" y="-579868"/>
	<facility id="trabalho143" x="-4159039" y="-573403"/>

	<facility id="casaPessoa144" x="-4158220" y="-572871"/>
	<facility id="trabalho144" x="-4160552" y="-579905"/>

	<facility id="casaPessoa145" x="-4158348" y="-579129"/>
	<facility id="loja145" x="-4159862" y="-577821"/>

	<facility id="casaPessoa146" x="-4152622" y="-579991"/>
	<facility id="trabalho146" x="-4157560" y="-578727"/>
	<facility id="casaDeNinguem146" x="-4158879" y="-582432"/>

	<facility id="casaPessoa147" x="-4154608" y="-583687"/>
	<facility id="trabalho147" x="-4155105" y="-570489"/>
	<facility id="loja147" x="-4156170" y="-580975"/>

	<facility id="casaPessoa148" x="-4152565" y="-580136"/>
	<facility id="trabalho148" x="-4155555" y="-582233"/>

	<facility id="casaPessoa149" x="-4160840" y="-579436"/>
	<facility id="trabalho149" x="-4156409" y="-582345"/>
	<facility id="loja149" x="-4156183" y="-572239"/>
	<facility id="casaDeNinguem149" x="-4156183" y="-572239"/>

	<facility id="casaPessoa150" x="-4157006" y="-573373"/>
	<facility id="trabalho150" x="-4155891" y="-582272"/>
	<facility id="loja150" x="-4161102" y="-579398"/>

	<facility id="casaPessoa151" x="-4159505" y="-573267"/>
	<facility id="casaDeNinguem151" x="-4149362" y="-579820"/>

	<facility id="casaPessoa152" x="-4157844" y="-578955"/>
	<facility id="trabalho152" x="-4157896" y="-573709"/>

	<facility id="casaPessoa153" x="-4159939" y="-578263"/>
	<facility id="trabalho153" x="-4154934" y="-582085"/>
	<facility id="loja153" x="-4153488" y="-584374"/>

	<facility id="casaPessoa154" x="-4152289" y="-577943"/>
	<facility id="trabalho154" x="-4152487" y="-579896"/>
	<facility id="loja154" x="-4157667" y="-579511"/>

	<facility id="casaPessoa155" x="-4160681" y="-577555"/>
	<facility id="casaDeNinguem155" x="-4155655" y="-583060"/>

	<facility id="casaPessoa156" x="-4156475" y="-579910"/>
	<facility id="trabalho156" x="-4159855" y="-575158"/>
	<facility id="loja156" x="-4157110" y="-577713"/>
	<facility id="casaDeNinguem156" x="-4157110" y="-577713"/>

	<facility id="casaPessoa157" x="-4157476" y="-579844"/>
	<facility id="loja157" x="-4151217" y="-581668"/>
	<facility id="casaDeNinguem157" x="-4151217" y="-581668"/>

	<facility id="casaPessoa158" x="-4154643" y="-582968"/>
	<facility id="loja158" x="-4159118" y="-573637"/>

	<facility id="casaPessoa159" x="-4152463" y="-581168"/>
	<facility id="trabalho159" x="-4149972" y="-579571"/>
	<facility id="loja159" x="-4160013" y="-578528"/>

	<facility id="casaPessoa160" x="-4153021" y="-580374"/>
	<facility id="trabalho160" x="-4153077" y="-579800"/>

	<facility id="casaPessoa161" x="-4151165" y="-581884"/>
	<facility id="trabalho161" x="-4160203" y="-570868"/>
	<facility id="loja161" x="-4156739" y="-574931"/>
	<facility id="casaDeNinguem161" x="-4156739" y="-574931"/>

	<facility id="casaPessoa162" x="-4157453" y="-579798"/>
	<facility id="trabalho162" x="-4158787" y="-572834"/>
	<facility id="casaDeNinguem162" x="-4151043" y="-578040"/>

	<facility id="casaPessoa163" x="-4151742" y="-578083"/>
	<facility id="trabalho163" x="-4155375" y="-570799"/>
	<facility id="loja163" x="-4152623" y="-577722"/>
	<facility id="casaDeNinguem163" x="-4152623" y="-577722"/>

	<facility id="casaPessoa164" x="-4157085" y="-581994"/>
	<facility id="trabalho164" x="-4158171" y="-574868"/>

	<facility id="casaPessoa165" x="-4157076" y="-581027"/>
	<facility id="casaDeNinguem165" x="-4152712" y="-585057"/>

	<facility id="casaPessoa166" x="-4158164" y="-572772"/>
	<facility id="trabalho166" x="-4155841" y="-572712"/>
	<facility id="casaDeNinguem166" x="-4152528" y="-578485"/>

	<facility id="casaPessoa167" x="-4150416" y="-581170"/>
	<facility id="loja167" x="-4154330" y="-579604"/>
	<facility id="casaDeNinguem167" x="-4154330" y="-579604"/>

	<facility id="casaPessoa168" x="-4153873" y="-583479"/>
	<facility id="trabalho168" x="-4153469" y="-583564"/>
	<facility id="loja168" x="-4161608" y="-584658"/>

	<facility id="casaPessoa169" x="-4159521" y="-573069"/>
	<facility id="casaDeNinguem169" x="-4159797" y="-578750"/>

	<facility id="casaPessoa170" x="-4158047" y="-580415"/>
	<facility id="trabalho170" x="-4154215" y="-582983"/>
	<facility id="loja170" x="-4161350" y="-578403"/>

	<facility id="casaPessoa171" x="-4159618" y="-577287"/>
	<facility id="loja171" x="-4151088" y="-579102"/>
	<facility id="casaDeNinguem171" x="-4151088" y="-579102"/>

	<facility id="casaPessoa172" x="-4156474" y="-580987"/>
	<facility id="loja172" x="-4152144" y="-580540"/>

	<facility id="casaPessoa173" x="-4157245" y="-578825"/>
	<facility id="loja173" x="-4154707" y="-585222"/>
	<facility id="casaDeNinguem173" x="-4154707" y="-585222"/>

	<facility id="casaPessoa174" x="-4159891" y="-579626"/>
	<facility id="trabalho174" x="-4154939" y="-584882"/>
	<facility id="loja174" x="-4157670" y="-583033"/>

	<facility id="casaPessoa175" x="-4156589" y="-574593"/>
	<facility id="trabalho175" x="-4154802" y="-584922"/>
	<facility id="loja175" x="-4154040" y="-579710"/>
	<facility id="casaDeNinguem175" x="-4154040" y="-579710"/>

	<facility id="casaPessoa176" x="-4155653" y="-570768"/>
	<facility id="trabalho176" x="-4160170" y="-571147"/>
	<facility id="loja176" x="-4158716" y="-574574"/>
	<facility id="casaDeNinguem176" x="-4158716" y="-574574"/>

	<facility id="casaPessoa177" x="-4154836" y="-583841"/>
	<facility id="trabalho177" x="-4151603" y="-580624"/>
	<facility id="loja177" x="-4153513" y="-584357"/>

	<facility id="casaPessoa178" x="-4157312" y="-575157"/>
	<facility id="trabalho178" x="-4161214" y="-578267"/>
	<facility id="loja178" x="-4156671" y="-573495"/>

	<facility id="casaPessoa179" x="-4150895" y="-580169"/>
	<facility id="trabalho179" x="-4151160" y="-578727"/>
	<facility id="loja179" x="-4154299" y="-584628"/>

	<facility id="casaPessoa180" x="-4154966" y="-582041"/>
	<facility id="loja180" x="-4152137" y="-581008"/>

	<facility id="casaPessoa181" x="-4156476" y="-577545"/>
	<facility id="trabalho181" x="-4162243" y="-587245"/>
	<facility id="loja181" x="-4155845" y="-576054"/>
	<facility id="casaDeNinguem181" x="-4155845" y="-576054"/>

	<facility id="casaPessoa182" x="-4154700" y="-581901"/>
	<facility id="trabalho182" x="-4158402" y="-574494"/>

	<facility id="casaPessoa183" x="-4157001" y="-581294"/>
	<facility id="loja183" x="-4156256" y="-575674"/>
	<facility id="casaDeNinguem183" x="-4156256" y="-575674"/>

	<facility id="casaPessoa184" x="-4154898" y="-584770"/>
	<facility id="trabalho184" x="-4158700" y="-577581"/>
	<facility id="casaDeNinguem184" x="-4158001" y="-579699"/>

	<facility id="casaPessoa185" x="-4160559" y="-577898"/>
	<facility id="trabalho185" x="-4157419" y="-578893"/>

	<facility id="casaPessoa186" x="-4159472" y="-577317"/>
	<facility id="trabalho186" x="-4159652" y="-574535"/>
	<facility id="loja186" x="-4157419" y="-578466"/>

	<facility id="casaPessoa187" x="-4160114" y="-578300"/>
	<facility id="casaDeNinguem187" x="-4158097" y="-573284"/>

	<facility id="casaPessoa188" x="-4161628" y="-585124"/>
	<facility id="trabalho188" x="-4160480" y="-578438"/>
	<facility id="casaDeNinguem188" x="-4155398" y="-585379"/>
