<?xml version="1.0" encoding="utf-8"?>
<!DOCTYPE facilities SYSTEM "http://www.matsim.org/files/dtd/facilities_v1.dtd">

<facilities>

	<facility id="casaPessoa0" x="-4154777" y="-584133"/>
	<facility id="loja0" x="-4154836" y="-571119"/>

	<facility id="casaPessoa1" x="-4159408" y="-574585"/>
	<facility id="trabalho1" x="-4153859" y="-581900"/>
	<facility id="loja1" x="-4158829" y="-575906"/>

	<facility id="casaPessoa2" x="-4154053" y="-581676"/>
	<facility id="trabalho2" x="-4155439" y="-581559"/>
	<facility id="loja2" x="-4155964" y="-580749"/>

	<facility id="casaPessoa3" x="-4152107" y="-578268"/>
	<facility id="trabalho3" x="-4159351" y="-574816"/>

	<facility id="casaPessoa4" x="-4159378" y="-577722"/>
	<facility id="trabalho4" x="-4162326" y="-587205"/>

	<facility id="casaPessoa5" x="-4156396" y="-584061"/>
	<facility id="trabalho5" x="-4159132" y="-574299"/>

	<facility id="casaPessoa6" x="-4155190" y="-584804"/>
	<facility id="trabalho6" x="-4156962" y="-578400"/>
	<facility id="loja6" x="-4157075" y="-581998"/>

	<facility id="casaPessoa7" x="-4160435" y="-576527"/>
	<facility id="trabalho7" x="-4163813" y="-586589"/>
	<facility id="loja7" x="-4157979" y="-576385"/>

	<facility id="casaPessoa8" x="-4150881" y="-578409"/>
	<facility id="trabalho8" x="-4161642" y="-584558"/>
	<facility id="loja8" x="-4160636" y="-571557"/>

	<facility id="casaPessoa9" x="-4160764" y="-579671"/>
	<facility id="trabalho9" x="-4158942" y="-578464"/>
	<facility id="loja9" x="-4151912" y="-580803"/>

	<facility id="casaPessoa10" x="-4156352" y="-574585"/>
	<facility id="trabalho10" x="-4155874" y="-584520"/>
	<facility id="loja10" x="-4151225" y="-579121"/>

	<facility id="casaPessoa11" x="-4155577" y="-580914"/>
	<facility id="trabalho11" x="-4156421" y="-573721"/>
	<facility id="loja11" x="-4161107" y="-578175"/>

	<facility id="casaPessoa12" x="-4161204" y="-572357"/>
	<facility id="trabalho12" x="-4157762" y="-577477"/>
	<facility id="loja12" x="-4151642" y="-578627"/>

	<facility id="casaPessoa13" x="-4156153" y="-582186"/>
	<facility id="loja13" x="-4156892" y="-578984"/>

	<facility id="casaPessoa14" x="-4151594" y="-578665"/>
	<facility id="trabalho14" x="-4160991" y="-572681"/>
	<facility id="loja14" x="-4152749" y="-579032"/>

	<facility id="casaPessoa15" x="-4160205" y="-579517"/>
	<facility id="trabalho15" x="-4155646" y="-580950"/>
	<facility id="loja15" x="-4159227" y="-574928"/>

	<facility id="casaPessoa16" x="-4153579" y="-583282"/>
	<facility id="trabalho16" x="-4156226" y="-580752"/>
	<facility id="loja16" x="-4155881" y="-570441"/>

	<facility id="casaPessoa17" x="-4155242" y="-583111"/>
	<facility id="trabalho17" x="-4151450" y="-580359"/>
	<facility id="loja17" x="-4151125" y="-579076"/>

	<facility id="casaPessoa18" x="-4155582" y="-570513"/>
	<facility id="trabalho18" x="-4157048" y="-577590"/>
	<facility id="loja18" x="-4153136" y="-578515"/>

	<facility id="casaPessoa19" x="-4160115" y="-578348"/>
	<facility id="trabalho19" x="-4151578" y="-580463"/>
	<facility id="loja19" x="-4150267" y="-574712"/>

	<facility id="casaPessoa20" x="-4162777" y="-587202"/>
	<facility id="trabalho20" x="-4159964" y="-578624"/>
	<facility id="loja20" x="-4161263" y="-574122"/>

	<facility id="casaPessoa21" x="-4153243" y="-583677"/>
	<facility id="trabalho21" x="-4162958" y="-584101"/>
	<facility id="loja21" x="-4158367" y="-579551"/>

	<facility id="casaPessoa22" x="-4156671" y="-573762"/>
	<facility id="trabalho22" x="-4160521" y="-580437"/>
	<facility id="loja22" x="-4155361" y="-570857"/>

	<facility id="casaPessoa23" x="-4150551" y="-574974"/>
	<facility id="trabalho23" x="-4149266" y="-579624"/>
	<facility id="loja23" x="-4157542" y="-576136"/>

	<facility id="casaPessoa24" x="-4156594" y="-580627"/>
	<facility id="loja24" x="-4158964" y="-576700"/>

	<facility id="casaPessoa25" x="-4158300" y="-573896"/>
	<facility id="trabalho25" x="-4151292" y="-579308"/>
	<facility id="loja25" x="-4156244" y="-573798"/>

	<facility id="casaPessoa26" x="-4160228" y="-579126"/>
	<facility id="trabalho26" x="-4154330" y="-580981"/>

	<facility id="casaPessoa27" x="-4154779" y="-583250"/>
	<facility id="trabalho27" x="-4149267" y="-579578"/>
	<facility id="loja27" x="-4150537" y="-574976"/>

	<facility id="casaPessoa28" x="-4160774" y="-577723"/>
	<facility id="trabalho28" x="-4161041" y="-572296"/>

	<facility id="casaPessoa29" x="-4162922" y="-584956"/>
	<facility id="trabalho29" x="-4160650" y="-575695"/>
	<facility id="loja29" x="-4154905" y="-571064"/>

	<facility id="casaPessoa30" x="-4159472" y="-577085"/>
	<facility id="trabalho30" x="-4157661" y="-574670"/>

	<facility id="casaPessoa31" x="-4151887" y="-579400"/>
	<facility id="trabalho31" x="-4151030" y="-578782"/>
	<facility id="loja31" x="-4157217" y="-575557"/>

	<facility id="casaPessoa32" x="-4154850" y="-570894"/>
	<facility id="trabalho32" x="-4157506" y="-581441"/>
	<facility id="loja32" x="-4155872" y="-581803"/>

	<facility id="casaPessoa33" x="-4161753" y="-578692"/>
	<facility id="trabalho33" x="-4159522" y="-574492"/>

	<facility id="casaPessoa34" x="-4158173" y="-573151"/>
	<facility id="loja34" x="-4162359" y="-577839"/>

	<facility id="casaPessoa35" x="-4157783" y="-579893"/>
	<facility id="trabalho35" x="-4159506" y="-577857"/>

	<facility id="casaPessoa36" x="-4160849" y="-578810"/>
	<facility id="trabalho36" x="-4156038" y="-570727"/>
	<facility id="loja36" x="-4160344" y="-579831"/>

	<facility id="casaPessoa37" x="-4150190" y="-579335"/>
	<facility id="trabalho37" x="-4152602" y="-579233"/>
	<facility id="loja37" x="-4162501" y="-586958"/>

	<facility id="casaPessoa38" x="-4159287" y="-574505"/>
	<facility id="trabalho38" x="-4155176" y="-583329"/>
	<facility id="loja38" x="-4157444" y="-582436"/>

	<facility id="casaPessoa39" x="-4156144" y="-575840"/>
	<facility id="trabalho39" x="-4159104" y="-574278"/>
	<facility id="loja39" x="-4153822" y="-575817"/>

	<facility id="casaPessoa40" x="-4153355" y="-580555"/>
	<facility id="trabalho40" x="-4160898" y="-577125"/>

	<facility id="casaPessoa41" x="-4150795" y="-579212"/>
	<facility id="trabalho41" x="-4159637" y="-582162"/>

	<facility id="casaPessoa42" x="-4151436" y="-581898"/>
	<facility id="trabalho42" x="-4157223" y="-575782"/>

	<facility id="casaPessoa43" x="-4156099" y="-577289"/>
	<facility id="trabalho43" x="-4159403" y="-580708"/>
	<facility id="loja43" x="-4158113" y="-582983"/>

	<facility id="casaPessoa44" x="-4159699" y="-576053"/>
	<facility id="trabalho44" x="-4151751" y="-581796"/>

	<facility id="casaPessoa45" x="-4156790" y="-578366"/>
	<facility id="trabalho45" x="-4156180" y="-582602"/>
	<facility id="loja45" x="-4162768" y="-584109"/>

	<facility id="casaPessoa46" x="-4157159" y="-582458"/>
	<facility id="trabalho46" x="-4155678" y="-577043"/>
	<facility id="loja46" x="-4155672" y="-580924"/>

	<facility id="casaPessoa47" x="-4155579" y="-570347"/>
	<facility id="trabalho47" x="-4154719" y="-582990"/>
	<facility id="loja47" x="-4159325" y="-574459"/>

	<facility id="casaPessoa48" x="-4161359" y="-585127"/>
	<facility id="trabalho48" x="-4153533" y="-578287"/>

	<facility id="casaPessoa49" x="-4151700" y="-576281"/>
	<facility id="trabalho49" x="-4157289" y="-583656"/>

	<facility id="casaPessoa50" x="-4156999" y="-577793"/>
	<facility id="trabalho50" x="-4154875" y="-581499"/>

	<facility id="casaPessoa51" x="-4157159" y="-572093"/>
	<facility id="trabalho51" x="-4162412" y="-587003"/>

	<facility id="casaPessoa52" x="-4157387" y="-578231"/>
	<facility id="loja52" x="-4159189" y="-580351"/>

	<facility id="casaPessoa53" x="-4160386" y="-579537"/>
	<facility id="trabalho53" x="-4157904" y="-573660"/>

	<facility id="casaPessoa54" x="-4156618" y="-573645"/>
	<facility id="trabalho54" x="-4157805" y="-575016"/>

	<facility id="casaPessoa55" x="-4159371" y="-577454"/>
	<facility id="trabalho55" x="-4160322" y="-579939"/>
	<facility id="loja55" x="-4157897" y="-583792"/>

	<facility id="casaPessoa56" x="-4160475" y="-577397"/>
	<facility id="trabalho56" x="-4160110" y="-578062"/>
	<facility id="loja56" x="-4155296" y="-580031"/>

	<facility id="casaPessoa57" x="-4158697" y="-578998"/>
	<facility id="trabalho57" x="-4150147" y="-574243"/>
	<facility id="loja57" x="-4159242" y="-574477"/>

	<facility id="casaPessoa58" x="-4161007" y="-571740"/>
	<facility id="trabalho58" x="-4157373" y="-579354"/>
	<facility id="loja58" x="-4158632" y="-574825"/>

	<facility id="casaPessoa59" x="-4154211" y="-579808"/>
	<facility id="trabalho59" x="-4163492" y="-586868"/>
	<facility id="loja59" x="-4160571" y="-580064"/>

	<facility id="casaPessoa60" x="-4154256" y="-581849"/>
	<facility id="trabalho60" x="-4155641" y="-570227"/>

	<facility id="casaPessoa61" x="-4161635" y="-585249"/>
	<facility id="trabalho61" x="-4156724" y="-580671"/>
	<facility id="loja61" x="-4159050" y="-575959"/>

	<facility id="casaPessoa62" x="-4157481" y="-576408"/>
	<facility id="loja62" x="-4153023" y="-578831"/>

	<facility id="casaPessoa63" x="-4159154" y="-581899"/>
	<facility id="trabalho63" x="-4156830" y="-579590"/>

	<facility id="casaPessoa64" x="-4158691" y="-574439"/>
	<facility id="loja64" x="-4164214" y="-577721"/>

	<facility id="casaPessoa65" x="-4151166" y="-582393"/>
	<facility id="trabalho65" x="-4152019" y="-580567"/>

	<facility id="casaPessoa66" x="-4158300" y="-576111"/>
	<facility id="trabalho66" x="-4151363" y="-578438"/>
	<facility id="loja66" x="-4153545" y="-580391"/>

	<facility id="casaPessoa67" x="-4160210" y="-579943"/>
	<facility id="trabalho67" x="-4154414" y="-585024"/>
	<facility id="loja67" x="-4151800" y="-578215"/>

	<facility id="casaPessoa68" x="-4160941" y="-577364"/>
	<facility id="trabalho68" x="-4156316" y="-577684"/>
	<facility id="loja68" x="-4158118" y="-573001"/>

	<facility id="casaPessoa69" x="-4162345" y="-587141"/>
	<facility id="trabalho69" x="-4151287" y="-580619"/>
	<facility id="loja69" x="-4153253" y="-583830"/>

	<facility id="casaPessoa70" x="-4158948" y="-574224"/>
	<facility id="trabalho70" x="-4154633" y="-580825"/>
	<facility id="loja70" x="-4150273" y="-581606"/>

	<facility id="casaPessoa71" x="-4156644" y="-581730"/>
	<facility id="trabalho71" x="-4151083" y="-579146"/>

	<facility id="casaPessoa72" x="-4154347" y="-580995"/>
	<facility id="trabalho72" x="-4158107" y="-578905"/>

	<facility id="casaPessoa73" x="-4152008" y="-581139"/>
	<facility id="trabalho73" x="-4150340" y="-574651"/>
	<facility id="loja73" x="-4154500" y="-580894"/>

	<facility id="casaPessoa74" x="-4162375" y="-585275"/>
	<facility id="trabalho74" x="-4154805" y="-573784"/>
	<facility id="loja74" x="-4161626" y="-585371"/>

	<facility id="casaPessoa75" x="-4161525" y="-572091"/>
	<facility id="trabalho75" x="-4155387" y="-583631"/>

	<facility id="casaPessoa76" x="-4156205" y="-574965"/>
	<facility id="trabalho76" x="-4156067" y="-583438"/>
	<facility id="loja76" x="-4157057" y="-581240"/>

	<facility id="casaPessoa77" x="-4151260" y="-582517"/>
	<facility id="trabalho77" x="-4158045" y="-573521"/>

	<facility id="casaPessoa78" x="-4161816" y="-584514"/>
	<facility id="trabalho78" x="-4157395" y="-575805"/>

	<facility id="casaPessoa79" x="-4155745" y="-570421"/>
	<facility id="trabalho79" x="-4161430" y="-585451"/>
	<facility id="loja79" x="-4161325" y="-578369"/>

	<facility id="casaPessoa80" x="-4153448" y="-583554"/>
	<facility id="trabalho80" x="-4160836" y="-579400"/>

	<facility id="casaPessoa81" x="-4157357" y="-576176"/>
	<facility id="trabalho81" x="-4157498" y="-575242"/>
	<facility id="loja81" x="-4157324" y="-575578"/>

	<facility id="casaPessoa82" x="-4156122" y="-576990"/>
	<facility id="trabalho82" x="-4162234" y="-585126"/>

	<facility id="casaPessoa83" x="-4158586" y="-577055"/>
	<facility id="trabalho83" x="-4159445" y="-572698"/>
	<facility id="loja83" x="-4160146" y="-578509"/>

	<facility id="casaPessoa84" x="-4150397" y="-574732"/>
	<facility id="trabalho84" x="-4151162" y="-580989"/>
	<facility id="loja84" x="-4161044" y="-577874"/>

	<facility id="casaPessoa85" x="-4159408" y="-581675"/>
	<facility id="trabalho85" x="-4156752" y="-578303"/>
	<facility id="loja85" x="-4154468" y="-582879"/>

	<facility id="casaPessoa86" x="-4161954" y="-585370"/>
	<facility id="trabalho86" x="-4153931" y="-579750"/>
	<facility id="loja86" x="-4162488" y="-577673"/>

	<facility id="casaPessoa87" x="-4155960" y="-569972"/>
	<facility id="trabalho87" x="-4159038" y="-574145"/>
	<facility id="loja87" x="-4156782" y="-575390"/>

	<facility id="casaPessoa88" x="-4150727" y="-580929"/>
	<facility id="trabalho88" x="-4149605" y="-579858"/>
	<facility id="loja88" x="-4159466" y="-581540"/>

	<facility id="casaPessoa89" x="-4157894" y="-575943"/>
	<facility id="trabalho89" x="-4160759" y="-575974"/>
	<facility id="loja89" x="-4158124" y="-577597"/>

	<facility id="casaPessoa90" x="-4155114" y="-581456"/>
	<facility id="loja90" x="-4157462" y="-574033"/>

	<facility id="casaPessoa91" x="-4153310" y="-578242"/>
	<facility id="trabalho91" x="-4155782" y="-583055"/>
	<facility id="loja91" x="-4160886" y="-577129"/>

	<facility id="casaPessoa92" x="-4158427" y="-576795"/>
	<facility id="loja92" x="-4150619" y="-582528"/>

	<facility id="casaPessoa93" x="-4150844" y="-578874"/>
	<facility id="trabalho93" x="-4159476" y="-578642"/>

	<facility id="casaPessoa94" x="-4156466" y="-578002"/>
	<facility id="trabalho94" x="-4158728" y="-573008"/>

	<facility id="casaPessoa95" x="-4159631" y="-578319"/>
	<facility id="trabalho95" x="-4154154" y="-579776"/>

	<facility id="casaPessoa96" x="-4155531" y="-571103"/>
	<facility id="trabalho96" x="-4154497" y="-583112"/>
	<facility id="loja96" x="-4159022" y="-578391"/>

	<facility id="casaPessoa97" x="-4154435" y="-582920"/>
	<facility id="trabalho97" x="-4155148" y="-582896"/>

	<facility id="casaPessoa98" x="-4156959" y="-575560"/>
	<facility id="trabalho98" x="-4156767" y="-573455"/>
	<facility id="loja98" x="-4150883" y="-578746"/>

	<facility id="casaPessoa99" x="-4162773" y="-586841"/>
	<facility id="loja99" x="-4152743" y="-581598"/>

	<facility id="casaPessoa100" x="-4157015" y="-574437"/>
	<facility id="trabalho100" x="-4157014" y="-583361"/>

	<facility id="casaPessoa101" x="-4155559" y="-570381"/>
	<facility id="trabalho101" x="-4156240" y="-581451"/>
	<facility id="loja101" x="-4163896" y="-586517"/>

	<facility id="casaPessoa102" x="-4152694" y="-584557"/>
	<facility id="trabalho102" x="-4161286" y="-572354"/>
	<facility id="loja102" x="-4158258" y="-572797"/>

	<facility id="casaPessoa103" x="-4151760" y="-581029"/>
	<facility id="trabalho103" x="-4159135" y="-581064"/>
	<facility id="loja103" x="-4160108" y="-576933"/>

	<facility id="casaPessoa104" x="-4152100" y="-580492"/>
	<facility id="trabalho104" x="-4151314" y="-578370"/>

	<facility id="casaPessoa105" x="-4150700" y="-578946"/>
	<facility id="trabalho105" x="-4161669" y="-578977"/>

	<facility id="casaPessoa106" x="-4158278" y="-578869"/>
	<facility id="trabalho106" x="-4158479" y="-580143"/>
	<facility id="loja106" x="-4157175" y="-575758"/>

	<facility id="casaPessoa107" x="-4160435" y="-578342"/>
	<facility id="loja107" x="-4158999" y="-574927"/>

	<facility id="casaPessoa108" x="-4163223" y="-584531"/>
	<facility id="trabalho108" x="-4156513" y="-575436"/>
	<facility id="loja108" x="-4161081" y="-578707"/>

	<facility id="casaPessoa109" x="-4154023" y="-579272"/>
	<facility id="trabalho109" x="-4151859" y="-580738"/>

	<facility id="casaPessoa110" x="-4160895" y="-578674"/>
	<facility id="trabalho110" x="-4152727" y="-579778"/>
	<facility id="loja110" x="-4152979" y="-580568"/>

	<facility id="casaPessoa111" x="-4152326" y="-580171"/>
	<facility id="trabalho111" x="-4158815" y="-574325"/>
	<facility id="loja111" x="-4149432" y="-579869"/>

	<facility id="casaPessoa112" x="-4157067" y="-573535"/>
	<facility id="trabalho112" x="-4160214" y="-580034"/>
	<facility id="loja112" x="-4157635" y="-577135"/>

	<facility id="casaPessoa113" x="-4158291" y="-577999"/>
	<facility id="trabalho113" x="-4161665" y="-577706"/>

	<facility id="casaPessoa114" x="-4156909" y="-575804"/>
	<facility id="trabalho114" x="-4160485" y="-578147"/>
	<facility id="loja114" x="-4152103" y="-578295"/>

	<facility id="casaPessoa115" x="-4158902" y="-578112"/>
	<facility id="loja115" x="-4150460" y="-575004"/>

	<facility id="casaPessoa116" x="-4157783" y="-573447"/>
	<facility id="trabalho116" x="-4158357" y="-575603"/>
	<facility id="loja116" x="-4152508" y="-584858"/>

	<facility id="casaPessoa117" x="-4155056" y="-581642"/>
	<facility id="trabalho117" x="-4156058" y="-580518"/>
	<facility id="loja117" x="-4154091" y="-583262"/>

	<facility id="casaPessoa118" x="-4157258" y="-578026"/>
	<facility id="trabalho118" x="-4159483" y="-578649"/>
	<facility id="loja118" x="-4150901" y="-578107"/>

	<facility id="casaPessoa119" x="-4156497" y="-576864"/>
	<facility id="trabalho119" x="-4153544" y="-578885"/>
	<facility id="loja119" x="-4161207" y="-574570"/>

	<facility id="casaPessoa120" x="-4159892" y="-578492"/>
	<facility id="trabalho120" x="-4155534" y="-582012"/>
	<facility id="loja120" x="-4155928" y="-584342"/>

	<facility id="casaPessoa121" x="-4152923" y="-583476"/>
	<facility id="trabalho121" x="-4155656" y="-583199"/>
	<facility id="loja121" x="-4151349" y="-578283"/>

	<facility id="casaPessoa122" x="-4158777" y="-580946"/>
	<facility id="loja122" x="-4159428" y="-577129"/>

	<facility id="casaPessoa123" x="-4157744" y="-574754"/>
	<facility id="trabalho123" x="-4157627" y="-574842"/>

	<facility id="casaPessoa124" x="-4153725" y="-580289"/>
	<facility id="trabalho124" x="-4154027" y="-583187"/>
	<facility id="loja124" x="-4159435" y="-578366"/>

	<facility id="casaPessoa125" x="-4156891" y="-583908"/>
	<facility id="trabalho125" x="-4160786" y="-578074"/>
	<facility id="loja125" x="-4162915" y="-575936"/>

	<facility id="casaPessoa126" x="-4161221" y="-572742"/>
	<facility id="loja126" x="-4157692" y="-577071"/>

	<facility id="casaPessoa127" x="-4154050" y="-579036"/>
	<facility id="trabalho127" x="-4155304" y="-582634"/>

	<facility id="casaPessoa128" x="-4152115" y="-578767"/>
	<facility id="trabalho128" x="-4161611" y="-577955"/>
	<facility id="loja128" x="-4155218" y="-583703"/>

	<facility id="casaPessoa129" x="-4155316" y="-581355"/>
	<facility id="loja129" x="-4153479" y="-580437"/>

	<facility id="casaPessoa130" x="-4154565" y="-579428"/>
	<facility id="trabalho130" x="-4158867" y="-574828"/>
	<facility id="loja130" x="-4158906" y="-580661"/>

	<facility id="casaPessoa131" x="-4157534" y="-575819"/>
	<facility id="trabalho131" x="-4161048" y="-578003"/>
	<facility id="loja131" x="-4151210" y="-579198"/>

	<facility id="casaPessoa132" x="-4158495" y="-574345"/>
	<facility id="trabalho132" x="-4152201" y="-578036"/>
	<facility id="loja132" x="-4161666" y="-577899"/>

	<facility id="casaPessoa133" x="-4158914" y="-576057"/>
	<facility id="trabalho133" x="-4160446" y="-578288"/>
	<facility id="loja133" x="-4157086" y="-578483"/>

	<facility id="casaPessoa134" x="-4157998" y="-575034"/>
	<facility id="trabalho134" x="-4160310" y="-579586"/>

	<facility id="casaPessoa135" x="-4152804" y="-584203"/>
	<facility id="trabalho135" x="-4158294" y="-580374"/>
	<facility id="loja135" x="-4161652" y="-577910"/>

	<facility id="casaPessoa136" x="-4160518" y="-577484"/>
	<facility id="trabalho136" x="-4153680" y="-580192"/>
	<facility id="loja136" x="-4160821" y="-578239"/>

	<facility id="casaPessoa137" x="-4152465" y="-578535"/>
	<facility id="trabalho137" x="-4155307" y="-581905"/>

	<facility id="casaPessoa138" x="-4158761" y="-574755"/>
	<facility id="trabalho138" x="-4157043" y="-579045"/>
	<facility id="loja138" x="-4149382" y="-579720"/>

	<facility id="casaPessoa139" x="-4159144" y="-575388"/>
	<facility id="trabalho139" x="-4160323" y="-579502"/>

	<facility id="casaPessoa140" x="-4158258" y="-573131"/>
	<facility id="trabalho140" x="-4155577" y="-584377"/>
	<facility id="loja140" x="-4158029" y="-582412"/>

	<facility id="casaPessoa141" x="-4151936" y="-578714"/>
	<facility id="trabalho141" x="-4161090" y="-572225"/>
	<facility id="loja141" x="-4156218" y="-581229"/>

	<facility id="casaPessoa142" x="-4159184" y="-576907"/>
	<facility id="trabalho142" x="-4153084" y="-583906"/>

	<facility id="casaPessoa143" x="-4159353" y="-573687"/>
	<facility id="trabalho143" x="-4158363" y="-576725"/>

	<facility id="casaPessoa144" x="-4155949" y="-570007"/>
	<facility id="trabalho144" x="-4156347" y="-579535"/>
	<facility id="loja144" x="-4162068" y="-585164"/>

	<facility id="casaPessoa145" x="-4161826" y="-577014"/>
	<facility id="trabalho145" x="-4155535" y="-575741"/>
	<facility id="loja145" x="-4152702" y="-578894"/>

	<facility id="casaPessoa146" x="-4154416" y="-584610"/>
	<facility id="trabalho146" x="-4164198" y="-586531"/>

	<facility id="casaPessoa147" x="-4159606" y="-578269"/>
	<facility id="trabalho147" x="-4160963" y="-572652"/>
	<facility id="loja147" x="-4155162" y="-584204"/>

	<facility id="casaPessoa148" x="-4154608" y="-583812"/>
	<facility id="loja148" x="-4157466" y="-577057"/>

	<facility id="casaPessoa149" x="-4154570" y="-582361"/>
	<facility id="trabalho149" x="-4150526" y="-582361"/>
	<facility id="loja149" x="-4155520" y="-582407"/>

	<facility id="casaPessoa150" x="-4156395" y="-578884"/>
	<facility id="trabalho150" x="-4156619" y="-583580"/>
	<facility id="loja150" x="-4161945" y="-585221"/>

	<facility id="casaPessoa151" x="-4154432" y="-581025"/>
	<facility id="trabalho151" x="-4156906" y="-582389"/>
	<facility id="loja151" x="-4158078" y="-575128"/>

	<facility id="casaPessoa152" x="-4161247" y="-571980"/>
	<facility id="trabalho152" x="-4157996" y="-576879"/>
	<facility id="loja152" x="-4158936" y="-585689"/>

	<facility id="casaPessoa153" x="-4162637" y="-587079"/>
	<facility id="trabalho153" x="-4157972" y="-574240"/>
	<facility id="loja153" x="-4155579" y="-580975"/>

	<facility id="casaPessoa154" x="-4159946" y="-578283"/>
	<facility id="trabalho154" x="-4154215" y="-573246"/>
	<facility id="loja154" x="-4159247" y="-573555"/>

	<facility id="casaPessoa155" x="-4162765" y="-584825"/>
	<facility id="trabalho155" x="-4154058" y="-586783"/>

	<facility id="casaPessoa156" x="-4156322" y="-578669"/>
	<facility id="trabalho156" x="-4154092" y="-579444"/>
	<facility id="loja156" x="-4152181" y="-581177"/>

	<facility id="casaPessoa157" x="-4161534" y="-578091"/>
	<facility id="trabalho157" x="-4159406" y="-573714"/>
	<facility id="loja157" x="-4155343" y="-580977"/>

	<facility id="casaPessoa158" x="-4152968" y="-584386"/>
	<facility id="loja158" x="-4154078" y="-585013"/>

	<facility id="casaPessoa159" x="-4156838" y="-574544"/>
	<facility id="trabalho159" x="-4154022" y="-580102"/>
	<facility id="loja159" x="-4155521" y="-581373"/>

	<facility id="casaPessoa160" x="-4150464" y="-581512"/>
	<facility id="trabalho160" x="-4158270" y="-576065"/>
	<facility id="loja160" x="-4157796" y="-575236"/>

	<facility id="casaPessoa161" x="-4151607" y="-579640"/>
	<facility id="trabalho161" x="-4161945" y="-584959"/>

	<facility id="casaPessoa162" x="-4155387" y="-583282"/>
	<facility id="trabalho162" x="-4159178" y="-576927"/>
	<facility id="loja162" x="-4151086" y="-579060"/>

	<facility id="casaPessoa163" x="-4158166" y="-573557"/>
	<facility id="trabalho163" x="-4158152" y="-575835"/>
	<facility id="loja163" x="-4156178" y="-576203"/>

	<facility id="casaPessoa164" x="-4160600" y="-575887"/>
	<facility id="trabalho164" x="-4152316" y="-580962"/>
	<facility id="loja164" x="-4151168" y="-578201"/>

	<facility id="casaPessoa165" x="-4152535" y="-580119"/>
	<facility id="trabalho165" x="-4162825" y="-584063"/>
	<facility id="loja165" x="-4161144" y="-572318"/>

	<facility id="casaPessoa166" x="-4155065" y="-581447"/>
	<facility id="trabalho166" x="-4160337" y="-577295"/>
	<facility id="loja166" x="-4151244" y="-580699"/>

	<facility id="casaPessoa167" x="-4159188" y="-575795"/>
	<facility id="trabalho167" x="-4152688" y="-578250"/>
	<facility id="loja167" x="-4163856" y="-586522"/>

	<facility id="casaPessoa168" x="-4163153" y="-586825"/>
	<facility id="loja168" x="-4159187" y="-580408"/>

	<facility id="casaPessoa169" x="-4151777" y="-578835"/>
	<facility id="trabalho169" x="-4151958" y="-578306"/>

	<facility id="casaPessoa170" x="-4155860" y="-575694"/>
	<facility id="trabalho170" x="-4154040" y="-575705"/>

	<facility id="casaPessoa171" x="-4151941" y="-581367"/>
	<facility id="loja171" x="-4154054" y="-581209"/>

	<facility id="casaPessoa172" x="-4161541" y="-584743"/>
	<facility id="trabalho172" x="-4162171" y="-587060"/>

	<facility id="casaPessoa173" x="-4156802" y="-578909"/>
	<facility id="trabalho173" x="-4159869" y="-574561"/>
	<facility id="loja173" x="-4156906" y="-579048"/>

	<facility id="casaPessoa174" x="-4159830" y="-577957"/>
	<facility id="trabalho174" x="-4154996" y="-575778"/>

	<facility id="casaPessoa175" x="-4153373" y="-583359"/>
	<facility id="trabalho175" x="-4157155" y="-582773"/>

	<facility id="casaPessoa176" x="-4156240" y="-581206"/>
	<facility id="trabalho176" x="-4161251" y="-571965"/>
	<facility id="loja176" x="-4153820" y="-580192"/>

	<facility id="casaPessoa177" x="-4158564" y="-572832"/>
	<facility id="trabalho177" x="-4154439" y="-579435"/>
	<facility id="loja177" x="-4156598" y="-574582"/>

	<facility id="casaPessoa178" x="-4158920" y="-573616"/>
	<facility id="trabalho178" x="-4157178" y="-583509"/>

	<facility id="casaPessoa179" x="-4160932" y="-572066"/>
	<facility id="trabalho179" x="-4150334" y="-581846"/>
	<facility id="loja179" x="-4151634" y="-578618"/>

	<facility id="casaPessoa180" x="-4158343" y="-577513"/>
	<facility id="trabalho180" x="-4161086" y="-579271"/>
	<facility id="loja180" x="-4159306" y="-581853"/>

	<facility id="casaPessoa181" x="-4163084" y="-584580"/>
	<facility id="trabalho181" x="-4156751" y="-573676"/>

	<facility id="casaPessoa182" x="-4163072" y="-586672"/>
	<facility id="trabalho182" x="-4160853" y="-577050"/>
	<facility id="loja182" x="-4159307" y="-576924"/>

	<facility id="casaPessoa183" x="-4162200" y="-584322"/>
	<facility id="trabalho183" x="-4151998" y="-578843"/>
	<facility id="loja183" x="-4162835" y="-584067"/>

	<facility id="casaPessoa184" x="-4158104" y="-579761"/>
	<facility id="trabalho184" x="-4157988" y="-573032"/>
	<facility id="loja184" x="-4156578" y="-577915"/>

	<facility id="casaPessoa185" x="-4155162" y="-581514"/>
	<facility id="trabalho185" x="-4155937" y="-584480"/>

	<facility id="casaPessoa186" x="-4157728" y="-577186"/>
	<facility id="trabalho186" x="-4160552" y="-578210"/>

	<facility id="casaPessoa187" x="-4151769" y="-580536"/>
	<facility id="trabalho187" x="-4155331" y="-583823"/>
	<facility id="loja187" x="-4152042" y="-578387"/>

	<facility id="casaPessoa188" x="-4153318" y="-580373"/>
	<facility id="trabalho188" x="-4157195" y="-578943"/>
	<facility id="loja188" x="-4156697" y="-579971"/>

	<facility id="casaPessoa189" x="-4154290" y="-582880"/>
	<facility id="trabalho189" x="-4153846" y="-583208"/>

	<facility id="casaPessoa190" x="-4155644" y="-580909"/>
	<facility id="trabalho190" x="-4161110" y="-578013"/>
	<facility id="loja190" x="-4153159" y="-579458"/>

	<facility id="casaPessoa191" x="-4159828" y="-580022"/>
	<facility id="trabalho191" x="-4151222" y="-578382"/>
	<facility id="loja191" x="-4155365" y="-581190"/>

	<facility id="casaPessoa192" x="-4162983" y="-586719"/>
	<facility id="trabalho192" x="-4151986" y="-578307"/>
	<facility id="loja192" x="-4152200" y="-578893"/>

	<facility id="casaPessoa193" x="-4152801" y="-579745"/>
	<facility id="trabalho193" x="-4158184" y="-573392"/>
	<facility id="loja193" x="-4150441" y="-575064"/>

	<facility id="casaPessoa194" x="-4152441" y="-580045"/>
	<facility id="trabalho194" x="-4157138" y="-573710"/>
	<facility id="loja194" x="-4154538" y="-584066"/>

	<facility id="casaPessoa195" x="-4157229" y="-581265"/>
	<facility id="trabalho195" x="-4160077" y="-579751"/>

	<facility id="casaPessoa196" x="-4158536" y="-573014"/>
	<facility id="loja196" x="-4153881" y="-581844"/>

	<facility id="casaPessoa197" x="-4157226" y="-578966"/>
	<facility id="trabalho197" x="-4160466" y="-579788"/>
	<facility id="loja197" x="-4160699" y="-576677"/>

	<facility id="casaPessoa198" x="-4157279" y="-576045"/>
	<facility id="trabalho198" x="-4159538" y="-580063"/>
	<facility id="loja198" x="-4157811" y="-583405"/>

	<facility id="casaPessoa199" x="-4161633" y="-584688"/>
	<facility id="trabalho199" x="-4156728" y="-581243"/>
	<facility id="loja199" x="-4150556" y="-574532"/>

	<facility id="casaPessoa200" x="-4159372" y="-574125"/>
	<facility id="trabalho200" x="-4158938" y="-573120"/>
	<facility id="loja200" x="-4157479" y="-577460"/>

	<facility id="casaPessoa201" x="-4150908" y="-578909"/>
	<facility id="trabalho201" x="-4155126" y="-581565"/>

	<facility id="casaPessoa202" x="-4156218" y="-582489"/>
	<facility id="trabalho202" x="-4151565" y="-579399"/>
	<facility id="loja202" x="-4157357" y="-575737"/>

	<facility id="casaPessoa203" x="-4153551" y="-585224"/>
	<facility id="trabalho203" x="-4161539" y="-584622"/>
	<facility id="loja203" x="-4153728" y="-580578"/>

	<facility id="casaPessoa204" x="-4156267" y="-572449"/>
	<facility id="trabalho204" x="-4156898" y="-581322"/>
	<facility id="loja204" x="-4158361" y="-579408"/>

	<facility id="casaPessoa205" x="-4159558" y="-572953"/>
	<facility id="trabalho205" x="-4155880" y="-575949"/>
	<facility id="loja205" x="-4158274" y="-582887"/>

	<facility id="casaPessoa206" x="-4156987" y="-583183"/>
	<facility id="trabalho206" x="-4153635" y="-580716"/>
	<facility id="loja206" x="-4157806" y="-573340"/>

	<facility id="casaPessoa207" x="-4157934" y="-574418"/>
	<facility id="trabalho207" x="-4159369" y="-576103"/>

	<facility id="casaPessoa208" x="-4150257" y="-578927"/>
	<facility id="trabalho208" x="-4155583" y="-583299"/>
	<facility id="loja208" x="-4158718" y="-574161"/>
