<?xml version="1.0" encoding="utf-8"?>
<!DOCTYPE plans SYSTEM "http://www.matsim.org/files/dtd/plans_v4.dtd">

<plans>

	<person id="pessoa0">
		<plan>
			<act end_time="04:30:41" x="-4154777" y="-584133" type="home"/>
			<leg mode="pt"/>
			<act end_time="14:30:41" x="-4154836" y="-571119" type="shop"/>
			<leg mode="pt"/>
			<act x="-4154777" y="-584133" type="home"/>
		</plan>
	</person>

	<person id="pessoa1">
		<plan>
			<act end_time="04:47:51" x="-4153859" y="-581900" type="work"/>
			<leg mode="pt"/>
			<act x="-4159408" y="-574585" type="home"/>
			<act end_time="18:47:51" x="-4159408" y="-574585" type="home"/>
			<leg mode="pt"/>
			<act x="-4153859" y="-581900" type="work"/>
		</plan>
	</person>

	<person id="pessoa2">
		<plan>
			<act end_time="11:50:54" x="-4154053" y="-581676" type="home"/>
			<leg mode="pt"/>
			<act end_time="20:50:54" x="-4155439" y="-581559" type="work"/>
			<leg mode="pt"/>
			<act x="-4154053" y="-581676" type="home"/>
		</plan>
	</person>

	<person id="pessoa3">
		<plan>
			<act end_time="04:28:00" x="-4152107" y="-578268" type="home"/>
			<leg mode="pt"/>
			<act end_time="17:28:00" x="-4159351" y="-574816" type="work"/>
			<leg mode="pt"/>
			<act x="-4152107" y="-578268" type="home"/>
		</plan>
	</person>

	<person id="pessoa4">
		<plan>
			<act end_time="04:45:32" x="-4162326" y="-587205" type="work"/>
			<leg mode="pt"/>
			<act x="-4159378" y="-577722" type="home"/>
			<act end_time="20:45:32" x="-4159378" y="-577722" type="home"/>
			<leg mode="pt"/>
			<act x="-4162326" y="-587205" type="work"/>
		</plan>
	</person>

	<person id="pessoa5">
		<plan>
			<act end_time="08:12:22" x="-4159132" y="-574299" type="work"/>
			<leg mode="pt"/>
			<act x="-4156396" y="-584061" type="home"/>
			<act end_time="20:12:22" x="-4156396" y="-584061" type="home"/>
			<leg mode="pt"/>
			<act x="-4159132" y="-574299" type="work"/>
		</plan>
	</person>

	<person id="pessoa6">
		<plan>
			<act end_time="13:55:38" x="-4155190" y="-584804" type="home"/>
			<leg mode="pt"/>
			<act end_time="18:55:38" x="-4156962" y="-578400" type="work"/>
			<leg mode="pt"/>
			<act x="-4155190" y="-584804" type="home"/>
		</plan>
	</person>

	<person id="pessoa7">
		<plan>
			<act end_time="14:06:13" x="-4160435" y="-576527" type="home"/>
			<leg mode="pt"/>
			<act end_time="19:06:13" x="-4163813" y="-586589" type="work"/>
			<leg mode="pt"/>
			<act x="-4160435" y="-576527" type="home"/>
		</plan>
	</person>

	<person id="pessoa8">
		<plan>
			<act end_time="04:01:03" x="-4150881" y="-578409" type="home"/>
			<leg mode="pt"/>
			<act end_time="14:01:03" x="-4160636" y="-571557" type="shop"/>
			<leg mode="pt"/>
			<act end_time="21:01:03" x="-4161642" y="-584558" type="work"/>
			<leg mode="pt"/>
			<act x="-4150881" y="-578409" type="home"/>
		</plan>
	</person>

	<person id="pessoa9">
		<plan>
			<act end_time="06:40:46" x="-4160764" y="-579671" type="home"/>
			<leg mode="pt"/>
			<act end_time="14:40:46" x="-4158942" y="-578464" type="work"/>
			<leg mode="pt"/>
			<act end_time="22:40:46" x="-4151912" y="-580803" type="shop"/>
			<leg mode="pt"/>
			<act x="-4160764" y="-579671" type="home"/>
		</plan>
	</person>

	<person id="pessoa10">
		<plan>
			<act end_time="13:44:44" x="-4156352" y="-574585" type="home"/>
			<leg mode="pt"/>
			<act end_time="18:44:44" x="-4155874" y="-584520" type="work"/>
			<leg mode="pt"/>
			<act x="-4156352" y="-574585" type="home"/>
		</plan>
	</person>

	<person id="pessoa11">
		<plan>
			<act end_time="07:28:08" x="-4156421" y="-573721" type="work"/>
			<leg mode="pt"/>
			<act x="-4155577" y="-580914" type="home"/>
			<act end_time="19:28:08" x="-4155577" y="-580914" type="home"/>
			<leg mode="pt"/>
			<act x="-4156421" y="-573721" type="work"/>
		</plan>
	</person>

	<person id="pessoa12">
		<plan>
			<act end_time="06:07:28" x="-4157762" y="-577477" type="work"/>
			<leg mode="pt"/>
			<act x="-4161204" y="-572357" type="home"/>
			<act end_time="17:07:28" x="-4161204" y="-572357" type="home"/>
			<leg mode="pt"/>
			<act x="-4157762" y="-577477" type="work"/>
		</plan>
	</person>

	<person id="pessoa13">
		<plan>
			<act end_time="04:51:45" x="-4156153" y="-582186" type="home"/>
			<leg mode="pt"/>
			<act end_time="19:51:45" x="-4156892" y="-578984" type="shop"/>
			<leg mode="pt"/>
			<act x="-4156153" y="-582186" type="home"/>
		</plan>
	</person>

	<person id="pessoa14">
		<plan>
			<act end_time="08:14:16" x="-4160991" y="-572681" type="work"/>
			<leg mode="pt"/>
			<act x="-4151594" y="-578665" type="home"/>
			<act end_time="22:14:16" x="-4151594" y="-578665" type="home"/>
			<leg mode="pt"/>
			<act x="-4160991" y="-572681" type="work"/>
		</plan>
	</person>

	<person id="pessoa15">
		<plan>
			<act end_time="04:02:00" x="-4155646" y="-580950" type="work"/>
			<leg mode="pt"/>
			<act x="-4160205" y="-579517" type="home"/>
			<act end_time="17:02:00" x="-4160205" y="-579517" type="home"/>
			<leg mode="pt"/>
			<act x="-4155646" y="-580950" type="work"/>
		</plan>
	</person>

	<person id="pessoa16">
		<plan>
			<act end_time="04:39:46" x="-4156226" y="-580752" type="work"/>
			<leg mode="pt"/>
			<act x="-4153579" y="-583282" type="home"/>
			<act end_time="22:39:46" x="-4153579" y="-583282" type="home"/>
			<leg mode="pt"/>
			<act x="-4156226" y="-580752" type="work"/>
		</plan>
	</person>

	<person id="pessoa17">
		<plan>
			<act end_time="06:22:08" x="-4151450" y="-580359" type="work"/>
			<leg mode="pt"/>
			<act x="-4155242" y="-583111" type="home"/>
			<act end_time="20:22:08" x="-4155242" y="-583111" type="home"/>
			<leg mode="pt"/>
			<act x="-4151450" y="-580359" type="work"/>
		</plan>
	</person>

	<person id="pessoa18">
		<plan>
			<act end_time="07:39:56" x="-4157048" y="-577590" type="work"/>
			<leg mode="pt"/>
			<act x="-4155582" y="-570513" type="home"/>
			<act end_time="20:39:56" x="-4155582" y="-570513" type="home"/>
			<leg mode="pt"/>
			<act x="-4157048" y="-577590" type="work"/>
		</plan>
	</person>

	<person id="pessoa19">
		<plan>
			<act end_time="14:45:27" x="-4160115" y="-578348" type="home"/>
			<leg mode="pt"/>
			<act end_time="20:45:27" x="-4151578" y="-580463" type="work"/>
			<leg mode="pt"/>
			<act x="-4160115" y="-578348" type="home"/>
		</plan>
	</person>

	<person id="pessoa20">
		<plan>
			<act end_time="08:07:38" x="-4159964" y="-578624" type="work"/>
			<leg mode="pt"/>
			<act x="-4162777" y="-587202" type="home"/>
			<act end_time="20:07:38" x="-4162777" y="-587202" type="home"/>
			<leg mode="pt"/>
			<act x="-4159964" y="-578624" type="work"/>
		</plan>
	</person>

	<person id="pessoa21">
		<plan>
			<act end_time="13:13:31" x="-4153243" y="-583677" type="home"/>
			<leg mode="pt"/>
			<act end_time="20:13:31" x="-4162958" y="-584101" type="work"/>
			<leg mode="pt"/>
			<act x="-4153243" y="-583677" type="home"/>
		</plan>
	</person>

	<person id="pessoa22">
		<plan>
			<act end_time="04:22:59" x="-4156671" y="-573762" type="home"/>
			<leg mode="pt"/>
			<act end_time="13:22:59" x="-4155361" y="-570857" type="shop"/>
			<leg mode="pt"/>
			<act end_time="17:22:59" x="-4160521" y="-580437" type="work"/>
			<leg mode="pt"/>
			<act x="-4156671" y="-573762" type="home"/>
		</plan>
	</person>

	<person id="pessoa23">
		<plan>
			<act end_time="05:58:37" x="-4149266" y="-579624" type="work"/>
			<leg mode="pt"/>
			<act x="-4150551" y="-574974" type="home"/>
			<act end_time="17:58:37" x="-4150551" y="-574974" type="home"/>
			<leg mode="pt"/>
			<act x="-4149266" y="-579624" type="work"/>
		</plan>
	</person>

	<person id="pessoa24">
		<plan>
			<act end_time="14:22:18" x="-4156594" y="-580627" type="home"/>
			<leg mode="pt"/>
			<act end_time="20:22:18" x="-4158964" y="-576700" type="shop"/>
			<leg mode="pt"/>
			<act x="-4156594" y="-580627" type="home"/>
		</plan>
	</person>

	<person id="pessoa25">
		<plan>
			<act end_time="07:28:25" x="-4151292" y="-579308" type="work"/>
			<leg mode="pt"/>
			<act x="-4158300" y="-573896" type="home"/>
			<act end_time="20:28:25" x="-4158300" y="-573896" type="home"/>
			<leg mode="pt"/>
			<act x="-4151292" y="-579308" type="work"/>
		</plan>
	</person>

	<person id="pessoa26">
		<plan>
			<act end_time="07:59:09" x="-4154330" y="-580981" type="work"/>
			<leg mode="pt"/>
			<act x="-4160228" y="-579126" type="home"/>
			<act end_time="19:59:09" x="-4160228" y="-579126" type="home"/>
			<leg mode="pt"/>
			<act x="-4154330" y="-580981" type="work"/>
		</plan>
	</person>

	<person id="pessoa27">
		<plan>
			<act end_time="05:59:04" x="-4149267" y="-579578" type="work"/>
			<leg mode="pt"/>
			<act x="-4154779" y="-583250" type="home"/>
			<act end_time="22:59:04" x="-4154779" y="-583250" type="home"/>
			<leg mode="pt"/>
			<act x="-4149267" y="-579578" type="work"/>
		</plan>
	</person>

	<person id="pessoa28">
		<plan>
			<act end_time="07:53:11" x="-4160774" y="-577723" type="home"/>
			<leg mode="pt"/>
			<act end_time="22:53:11" x="-4161041" y="-572296" type="work"/>
			<leg mode="pt"/>
			<act x="-4160774" y="-577723" type="home"/>
		</plan>
	</person>

	<person id="pessoa29">
		<plan>
			<act end_time="06:42:53" x="-4160650" y="-575695" type="work"/>
			<leg mode="pt"/>
			<act x="-4162922" y="-584956" type="home"/>
			<act end_time="17:42:53" x="-4162922" y="-584956" type="home"/>
			<leg mode="pt"/>
			<act x="-4160650" y="-575695" type="work"/>
		</plan>
	</person>

	<person id="pessoa30">
		<plan>
			<act end_time="07:17:57" x="-4157661" y="-574670" type="work"/>
			<leg mode="pt"/>
			<act x="-4159472" y="-577085" type="home"/>
			<act end_time="20:17:57" x="-4159472" y="-577085" type="home"/>
			<leg mode="pt"/>
			<act x="-4157661" y="-574670" type="work"/>
		</plan>
	</person>

	<person id="pessoa31">
		<plan>
			<act end_time="11:23:37" x="-4151887" y="-579400" type="home"/>
			<leg mode="pt"/>
			<act end_time="22:23:37" x="-4151030" y="-578782" type="work"/>
			<leg mode="pt"/>
			<act x="-4151887" y="-579400" type="home"/>
		</plan>
	</person>

	<person id="pessoa32">
		<plan>
			<act end_time="05:37:44" x="-4157506" y="-581441" type="work"/>
			<leg mode="pt"/>
			<act x="-4154850" y="-570894" type="home"/>
			<act end_time="22:37:44" x="-4154850" y="-570894" type="home"/>
			<leg mode="pt"/>
			<act x="-4157506" y="-581441" type="work"/>
		</plan>
	</person>

	<person id="pessoa33">
		<plan>
			<act end_time="07:31:32" x="-4161753" y="-578692" type="home"/>
			<leg mode="pt"/>
			<act end_time="13:31:32" x="-4159522" y="-574492" type="work"/>
			<leg mode="pt"/>
			<act x="-4161753" y="-578692" type="home"/>
		</plan>
	</person>

	<person id="pessoa34">
		<plan>
			<act end_time="14:57:22" x="-4158173" y="-573151" type="home"/>
			<leg mode="pt"/>
			<act end_time="20:57:22" x="-4162359" y="-577839" type="shop"/>
			<leg mode="pt"/>
			<act x="-4158173" y="-573151" type="home"/>
		</plan>
	</person>

	<person id="pessoa35">
		<plan>
			<act end_time="12:47:36" x="-4157783" y="-579893" type="home"/>
			<leg mode="pt"/>
			<act end_time="21:47:36" x="-4159506" y="-577857" type="work"/>
			<leg mode="pt"/>
			<act x="-4157783" y="-579893" type="home"/>
		</plan>
	</person>

	<person id="pessoa36">
		<plan>
			<act end_time="05:19:47" x="-4156038" y="-570727" type="work"/>
			<leg mode="pt"/>
			<act x="-4160849" y="-578810" type="home"/>
			<act end_time="22:19:47" x="-4160849" y="-578810" type="home"/>
			<leg mode="pt"/>
			<act x="-4156038" y="-570727" type="work"/>
		</plan>
	</person>

	<person id="pessoa37">
		<plan>
			<act end_time="04:44:28" x="-4150190" y="-579335" type="home"/>
			<leg mode="pt"/>
			<act end_time="12:44:28" x="-4152602" y="-579233" type="work"/>
			<leg mode="pt"/>
			<act x="-4150190" y="-579335" type="home"/>
		</plan>
	</person>

	<person id="pessoa38">
		<plan>
			<act end_time="06:55:39" x="-4159287" y="-574505" type="home"/>
			<leg mode="pt"/>
			<act end_time="14:55:39" x="-4157444" y="-582436" type="shop"/>
			<leg mode="pt"/>
			<act end_time="22:55:39" x="-4155176" y="-583329" type="work"/>
			<leg mode="pt"/>
			<act x="-4159287" y="-574505" type="home"/>
		</plan>
	</person>

	<person id="pessoa39">
		<plan>
			<act end_time="06:11:30" x="-4156144" y="-575840" type="home"/>
			<leg mode="pt"/>
			<act end_time="11:11:30" x="-4159104" y="-574278" type="work"/>
			<leg mode="pt"/>
			<act end_time="22:11:30" x="-4153822" y="-575817" type="shop"/>
			<leg mode="pt"/>
			<act x="-4156144" y="-575840" type="home"/>
		</plan>
	</person>

	<person id="pessoa40">
		<plan>
			<act end_time="05:36:00" x="-4153355" y="-580555" type="home"/>
			<leg mode="pt"/>
			<act end_time="22:36:00" x="-4160898" y="-577125" type="work"/>
			<leg mode="pt"/>
			<act x="-4153355" y="-580555" type="home"/>
		</plan>
	</person>

	<person id="pessoa41">
		<plan>
			<act end_time="05:20:16" x="-4150795" y="-579212" type="home"/>
			<leg mode="pt"/>
			<act end_time="18:20:16" x="-4159637" y="-582162" type="work"/>
			<leg mode="pt"/>
			<act x="-4150795" y="-579212" type="home"/>
		</plan>
	</person>

	<person id="pessoa42">
		<plan>
			<act end_time="04:32:30" x="-4151436" y="-581898" type="home"/>
			<leg mode="pt"/>
			<act end_time="11:32:30" x="-4157223" y="-575782" type="work"/>
			<leg mode="pt"/>
			<act x="-4151436" y="-581898" type="home"/>
		</plan>
	</person>

	<person id="pessoa43">
		<plan>
			<act end_time="04:03:28" x="-4159403" y="-580708" type="work"/>
			<leg mode="pt"/>
			<act x="-4156099" y="-577289" type="home"/>
			<act end_time="21:03:28" x="-4156099" y="-577289" type="home"/>
			<leg mode="pt"/>
			<act x="-4159403" y="-580708" type="work"/>
		</plan>
	</person>

	<person id="pessoa44">
		<plan>
			<act end_time="07:54:37" x="-4151751" y="-581796" type="work"/>
			<leg mode="pt"/>
			<act x="-4159699" y="-576053" type="home"/>
			<act end_time="21:54:37" x="-4159699" y="-576053" type="home"/>
			<leg mode="pt"/>
			<act x="-4151751" y="-581796" type="work"/>
		</plan>
	</person>

	<person id="pessoa45">
		<plan>
			<act end_time="11:03:47" x="-4156790" y="-578366" type="home"/>
			<leg mode="pt"/>
			<act end_time="20:03:47" x="-4156180" y="-582602" type="work"/>
			<leg mode="pt"/>
			<act x="-4156790" y="-578366" type="home"/>
		</plan>
	</person>

	<person id="pessoa46">
		<plan>
			<act end_time="06:00:24" x="-4157159" y="-582458" type="home"/>
			<leg mode="pt"/>
			<act end_time="20:00:24" x="-4155678" y="-577043" type="work"/>
			<leg mode="pt"/>
			<act x="-4157159" y="-582458" type="home"/>
		</plan>
	</person>

	<person id="pessoa47">
		<plan>
			<act end_time="14:50:57" x="-4155579" y="-570347" type="home"/>
			<leg mode="pt"/>
			<act end_time="18:50:57" x="-4154719" y="-582990" type="work"/>
			<leg mode="pt"/>
			<act x="-4155579" y="-570347" type="home"/>
		</plan>
	</person>

	<person id="pessoa48">
		<plan>
			<act end_time="05:31:37" x="-4161359" y="-585127" type="home"/>
			<leg mode="pt"/>
			<act end_time="22:31:37" x="-4153533" y="-578287" type="work"/>
			<leg mode="pt"/>
			<act x="-4161359" y="-585127" type="home"/>
		</plan>
	</person>

	<person id="pessoa49">
		<plan>
			<act end_time="05:42:25" x="-4151700" y="-576281" type="home"/>
			<leg mode="pt"/>
			<act end_time="11:42:25" x="-4157289" y="-583656" type="work"/>
			<leg mode="pt"/>
			<act x="-4151700" y="-576281" type="home"/>
		</plan>
	</person>

	<person id="pessoa50">
		<plan>
			<act end_time="04:39:03" x="-4154875" y="-581499" type="work"/>
			<leg mode="pt"/>
			<act x="-4156999" y="-577793" type="home"/>
			<act end_time="20:39:03" x="-4156999" y="-577793" type="home"/>
			<leg mode="pt"/>
			<act x="-4154875" y="-581499" type="work"/>
		</plan>
	</person>

	<person id="pessoa51">
		<plan>
			<act end_time="06:50:34" x="-4162412" y="-587003" type="work"/>
			<leg mode="pt"/>
			<act x="-4157159" y="-572093" type="home"/>
			<act end_time="19:50:34" x="-4157159" y="-572093" type="home"/>
			<leg mode="pt"/>
			<act x="-4162412" y="-587003" type="work"/>
		</plan>
	</person>

	<person id="pessoa52">
		<plan>
			<act end_time="11:25:07" x="-4157387" y="-578231" type="home"/>
			<leg mode="pt"/>
			<act end_time="21:25:07" x="-4159189" y="-580351" type="shop"/>
			<leg mode="pt"/>
			<act x="-4157387" y="-578231" type="home"/>
		</plan>
	</person>

	<person id="pessoa53">
		<plan>
			<act end_time="08:30:43" x="-4160386" y="-579537" type="home"/>
			<leg mode="pt"/>
			<act end_time="17:30:43" x="-4157904" y="-573660" type="work"/>
			<leg mode="pt"/>
			<act x="-4160386" y="-579537" type="home"/>
		</plan>
	</person>

	<person id="pessoa54">
		<plan>
			<act end_time="07:18:24" x="-4157805" y="-575016" type="work"/>
			<leg mode="pt"/>
			<act x="-4156618" y="-573645" type="home"/>
			<act end_time="17:18:24" x="-4156618" y="-573645" type="home"/>
			<leg mode="pt"/>
			<act x="-4157805" y="-575016" type="work"/>
		</plan>
	</person>

	<person id="pessoa55">
		<plan>
			<act end_time="06:56:40" x="-4160322" y="-579939" type="work"/>
			<leg mode="pt"/>
			<act x="-4159371" y="-577454" type="home"/>
			<act end_time="18:56:40" x="-4159371" y="-577454" type="home"/>
			<leg mode="pt"/>
			<act x="-4160322" y="-579939" type="work"/>
		</plan>
	</person>

	<person id="pessoa56">
		<plan>
			<act end_time="04:52:14" x="-4160110" y="-578062" type="work"/>
			<leg mode="pt"/>
			<act x="-4160475" y="-577397" type="home"/>
			<act end_time="17:52:14" x="-4160475" y="-577397" type="home"/>
			<leg mode="pt"/>
			<act x="-4160110" y="-578062" type="work"/>
		</plan>
	</person>

	<person id="pessoa57">
		<plan>
			<act end_time="12:04:01" x="-4158697" y="-578998" type="home"/>
			<leg mode="pt"/>
			<act end_time="18:04:01" x="-4159242" y="-574477" type="shop"/>
			<leg mode="pt"/>
			<act x="-4158697" y="-578998" type="home"/>
		</plan>
	</person>

	<person id="pessoa58">
		<plan>
			<act end_time="08:56:50" x="-4157373" y="-579354" type="work"/>
			<leg mode="pt"/>
			<act x="-4161007" y="-571740" type="home"/>
			<act end_time="21:56:50" x="-4161007" y="-571740" type="home"/>
			<leg mode="pt"/>
			<act x="-4157373" y="-579354" type="work"/>
		</plan>
	</person>

	<person id="pessoa59">
		<plan>
			<act end_time="07:57:07" x="-4163492" y="-586868" type="work"/>
			<leg mode="pt"/>
			<act x="-4154211" y="-579808" type="home"/>
			<act end_time="20:57:07" x="-4154211" y="-579808" type="home"/>
			<leg mode="pt"/>
			<act x="-4163492" y="-586868" type="work"/>
		</plan>
	</person>

	<person id="pessoa60">
		<plan>
			<act end_time="04:11:20" x="-4154256" y="-581849" type="home"/>
			<leg mode="pt"/>
			<act end_time="14:11:20" x="-4155641" y="-570227" type="work"/>
			<leg mode="pt"/>
			<act x="-4154256" y="-581849" type="home"/>
		</plan>
	</person>

	<person id="pessoa61">
		<plan>
			<act end_time="06:35:24" x="-4156724" y="-580671" type="work"/>
			<leg mode="pt"/>
			<act x="-4161635" y="-585249" type="home"/>
			<act end_time="20:35:24" x="-4161635" y="-585249" type="home"/>
			<leg mode="pt"/>
			<act x="-4156724" y="-580671" type="work"/>
		</plan>
	</person>

	<person id="pessoa62">
		<plan>
			<act end_time="13:57:11" x="-4157481" y="-576408" type="home"/>
			<leg mode="pt"/>
			<act end_time="21:57:11" x="-4153023" y="-578831" type="shop"/>
			<leg mode="pt"/>
			<act x="-4157481" y="-576408" type="home"/>
		</plan>
	</person>

	<person id="pessoa63">
		<plan>
			<act end_time="07:04:46" x="-4156830" y="-579590" type="work"/>
			<leg mode="pt"/>
			<act x="-4159154" y="-581899" type="home"/>
			<act end_time="18:04:46" x="-4159154" y="-581899" type="home"/>
			<leg mode="pt"/>
			<act x="-4156830" y="-579590" type="work"/>
		</plan>
	</person>

	<person id="pessoa64">
		<plan>
			<act end_time="04:26:09" x="-4158691" y="-574439" type="home"/>
			<leg mode="pt"/>
			<act end_time="19:26:09" x="-4164214" y="-577721" type="shop"/>
			<leg mode="pt"/>
			<act x="-4158691" y="-574439" type="home"/>
		</plan>
	</person>

	<person id="pessoa65">
		<plan>
			<act end_time="04:17:35" x="-4152019" y="-580567" type="work"/>
			<leg mode="pt"/>
			<act x="-4151166" y="-582393" type="home"/>
			<act end_time="22:17:35" x="-4151166" y="-582393" type="home"/>
			<leg mode="pt"/>
			<act x="-4152019" y="-580567" type="work"/>
		</plan>
	</person>

	<person id="pessoa66">
		<plan>
			<act end_time="05:21:27" x="-4151363" y="-578438" type="work"/>
			<leg mode="pt"/>
			<act x="-4158300" y="-576111" type="home"/>
			<act end_time="22:21:27" x="-4158300" y="-576111" type="home"/>
			<leg mode="pt"/>
			<act x="-4151363" y="-578438" type="work"/>
		</plan>
	</person>

	<person id="pessoa67">
		<plan>
			<act end_time="06:47:16" x="-4160210" y="-579943" type="home"/>
			<leg mode="pt"/>
			<act end_time="13:47:16" x="-4154414" y="-585024" type="work"/>
			<leg mode="pt"/>
			<act x="-4160210" y="-579943" type="home"/>
		</plan>
	</person>

	<person id="pessoa68">
		<plan>
			<act end_time="11:25:09" x="-4160941" y="-577364" type="home"/>
			<leg mode="pt"/>
			<act end_time="17:25:09" x="-4156316" y="-577684" type="work"/>
			<leg mode="pt"/>
			<act x="-4160941" y="-577364" type="home"/>
		</plan>
	</person>

	<person id="pessoa69">
		<plan>
			<act end_time="05:05:37" x="-4151287" y="-580619" type="work"/>
			<leg mode="pt"/>
			<act x="-4162345" y="-587141" type="home"/>
			<act end_time="17:05:37" x="-4162345" y="-587141" type="home"/>
			<leg mode="pt"/>
			<act x="-4151287" y="-580619" type="work"/>
		</plan>
	</person>

	<person id="pessoa70">
		<plan>
			<act end_time="12:26:37" x="-4158948" y="-574224" type="home"/>
			<leg mode="pt"/>
			<act end_time="19:26:37" x="-4154633" y="-580825" type="work"/>
			<leg mode="pt"/>
			<act x="-4158948" y="-574224" type="home"/>
		</plan>
	</person>

	<person id="pessoa71">
		<plan>
			<act end_time="07:16:49" x="-4151083" y="-579146" type="work"/>
			<leg mode="pt"/>
			<act x="-4156644" y="-581730" type="home"/>
			<act end_time="18:16:49" x="-4156644" y="-581730" type="home"/>
			<leg mode="pt"/>
			<act x="-4151083" y="-579146" type="work"/>
		</plan>
	</person>

	<person id="pessoa72">
		<plan>
			<act end_time="06:41:41" x="-4154347" y="-580995" type="home"/>
			<leg mode="pt"/>
			<act end_time="18:41:41" x="-4158107" y="-578905" type="work"/>
			<leg mode="pt"/>
			<act x="-4154347" y="-580995" type="home"/>
		</plan>
	</person>

	<person id="pessoa73">
		<plan>
			<act end_time="05:24:03" x="-4150340" y="-574651" type="work"/>
			<leg mode="pt"/>
			<act x="-4152008" y="-581139" type="home"/>
			<act end_time="18:24:03" x="-4152008" y="-581139" type="home"/>
			<leg mode="pt"/>
			<act x="-4150340" y="-574651" type="work"/>
		</plan>
	</person>

	<person id="pessoa74">
		<plan>
			<act end_time="07:43:08" x="-4162375" y="-585275" type="home"/>
			<leg mode="pt"/>
			<act end_time="14:43:08" x="-4154805" y="-573784" type="work"/>
			<leg mode="pt"/>
			<act end_time="18:43:08" x="-4161626" y="-585371" type="shop"/>
			<leg mode="pt"/>
			<act x="-4162375" y="-585275" type="home"/>
		</plan>
	</person>

	<person id="pessoa75">
		<plan>
			<act end_time="05:16:04" x="-4161525" y="-572091" type="home"/>
			<leg mode="pt"/>
			<act end_time="12:16:04" x="-4155387" y="-583631" type="work"/>
			<leg mode="pt"/>
			<act x="-4161525" y="-572091" type="home"/>
		</plan>
	</person>

	<person id="pessoa76">
		<plan>
			<act end_time="06:38:14" x="-4156067" y="-583438" type="work"/>
			<leg mode="pt"/>
			<act x="-4156205" y="-574965" type="home"/>
			<act end_time="18:38:14" x="-4156205" y="-574965" type="home"/>
			<leg mode="pt"/>
			<act x="-4156067" y="-583438" type="work"/>
		</plan>
	</person>

	<person id="pessoa77">
		<plan>
			<act end_time="07:18:13" x="-4158045" y="-573521" type="work"/>
			<leg mode="pt"/>
			<act x="-4151260" y="-582517" type="home"/>
			<act end_time="17:18:13" x="-4151260" y="-582517" type="home"/>
			<leg mode="pt"/>
			<act x="-4158045" y="-573521" type="work"/>
		</plan>
	</person>

	<person id="pessoa78">
		<plan>
			<act end_time="04:50:00" x="-4161816" y="-584514" type="home"/>
			<leg mode="pt"/>
			<act end_time="17:50:00" x="-4157395" y="-575805" type="work"/>
			<leg mode="pt"/>
			<act x="-4161816" y="-584514" type="home"/>
		</plan>
	</person>

	<person id="pessoa79">
		<plan>
			<act end_time="04:00:14" x="-4161430" y="-585451" type="work"/>
			<leg mode="pt"/>
			<act x="-4155745" y="-570421" type="home"/>
			<act end_time="19:00:14" x="-4155745" y="-570421" type="home"/>
			<leg mode="pt"/>
			<act x="-4161430" y="-585451" type="work"/>
		</plan>
	</person>

	<person id="pessoa80">
		<plan>
			<act end_time="05:26:10" x="-4153448" y="-583554" type="home"/>
			<leg mode="pt"/>
			<act end_time="21:26:10" x="-4160836" y="-579400" type="work"/>
			<leg mode="pt"/>
			<act x="-4153448" y="-583554" type="home"/>
		</plan>
	</person>

	<person id="pessoa81">
		<plan>
			<act end_time="05:46:53" x="-4157498" y="-575242" type="work"/>
			<leg mode="pt"/>
			<act x="-4157357" y="-576176" type="home"/>
			<act end_time="17:46:53" x="-4157357" y="-576176" type="home"/>
			<leg mode="pt"/>
			<act x="-4157498" y="-575242" type="work"/>
		</plan>
	</person>

	<person id="pessoa82">
		<plan>
			<act end_time="07:43:39" x="-4156122" y="-576990" type="home"/>
			<leg mode="pt"/>
			<act end_time="19:43:39" x="-4162234" y="-585126" type="work"/>
			<leg mode="pt"/>
			<act x="-4156122" y="-576990" type="home"/>
		</plan>
	</person>

	<person id="pessoa83">
		<plan>
			<act end_time="04:57:49" x="-4159445" y="-572698" type="work"/>
			<leg mode="pt"/>
			<act x="-4158586" y="-577055" type="home"/>
			<act end_time="17:57:49" x="-4158586" y="-577055" type="home"/>
			<leg mode="pt"/>
			<act x="-4159445" y="-572698" type="work"/>
		</plan>
	</person>

	<person id="pessoa84">
		<plan>
			<act end_time="06:02:08" x="-4150397" y="-574732" type="home"/>
			<leg mode="pt"/>
			<act end_time="22:02:08" x="-4151162" y="-580989" type="work"/>
			<leg mode="pt"/>
			<act x="-4150397" y="-574732" type="home"/>
		</plan>
	</person>

	<person id="pessoa85">
		<plan>
			<act end_time="07:33:49" x="-4156752" y="-578303" type="work"/>
			<leg mode="pt"/>
			<act x="-4159408" y="-581675" type="home"/>
			<act end_time="19:33:49" x="-4159408" y="-581675" type="home"/>
			<leg mode="pt"/>
			<act x="-4156752" y="-578303" type="work"/>
		</plan>
	</person>

	<person id="pessoa86">
		<plan>
			<act end_time="04:14:42" x="-4153931" y="-579750" type="work"/>
			<leg mode="pt"/>
			<act x="-4161954" y="-585370" type="home"/>
			<act end_time="22:14:42" x="-4161954" y="-585370" type="home"/>
			<leg mode="pt"/>
			<act x="-4153931" y="-579750" type="work"/>
		</plan>
	</person>

	<person id="pessoa87">
		<plan>
			<act end_time="04:30:41" x="-4159038" y="-574145" type="work"/>
			<leg mode="pt"/>
			<act x="-4155960" y="-569972" type="home"/>
			<act end_time="20:30:41" x="-4155960" y="-569972" type="home"/>
			<leg mode="pt"/>
			<act x="-4159038" y="-574145" type="work"/>
		</plan>
	</person>

	<person id="pessoa88">
		<plan>
			<act end_time="08:02:13" x="-4149605" y="-579858" type="work"/>
			<leg mode="pt"/>
			<act x="-4150727" y="-580929" type="home"/>
			<act end_time="19:02:13" x="-4150727" y="-580929" type="home"/>
			<leg mode="pt"/>
			<act x="-4149605" y="-579858" type="work"/>
		</plan>
	</person>

	<person id="pessoa89">
		<plan>
			<act end_time="14:29:49" x="-4157894" y="-575943" type="home"/>
			<leg mode="pt"/>
			<act end_time="20:29:49" x="-4158124" y="-577597" type="shop"/>
			<leg mode="pt"/>
			<act x="-4157894" y="-575943" type="home"/>
		</plan>
	</person>

	<person id="pessoa90">
		<plan>
			<act end_time="14:03:31" x="-4155114" y="-581456" type="home"/>
			<leg mode="pt"/>
			<act end_time="19:03:31" x="-4157462" y="-574033" type="shop"/>
			<leg mode="pt"/>
			<act x="-4155114" y="-581456" type="home"/>
		</plan>
	</person>

	<person id="pessoa91">
		<plan>
			<act end_time="04:20:32" x="-4153310" y="-578242" type="home"/>
			<leg mode="pt"/>
			<act end_time="19:20:32" x="-4155782" y="-583055" type="work"/>
			<leg mode="pt"/>
			<act x="-4153310" y="-578242" type="home"/>
		</plan>
	</person>

	<person id="pessoa92">
		<plan>
			<act end_time="06:23:23" x="-4158427" y="-576795" type="home"/>
			<leg mode="pt"/>
			<act end_time="13:23:23" x="-4150619" y="-582528" type="shop"/>
			<leg mode="pt"/>
			<act x="-4158427" y="-576795" type="home"/>
		</plan>
	</person>

	<person id="pessoa93">
		<plan>
			<act end_time="08:50:26" x="-4150844" y="-578874" type="home"/>
			<leg mode="pt"/>
			<act end_time="18:50:26" x="-4159476" y="-578642" type="work"/>
			<leg mode="pt"/>
			<act x="-4150844" y="-578874" type="home"/>
		</plan>
	</person>

	<person id="pessoa94">
		<plan>
			<act end_time="04:30:40" x="-4158728" y="-573008" type="work"/>
			<leg mode="pt"/>
			<act x="-4156466" y="-578002" type="home"/>
			<act end_time="18:30:40" x="-4156466" y="-578002" type="home"/>
			<leg mode="pt"/>
			<act x="-4158728" y="-573008" type="work"/>
		</plan>
	</person>

	<person id="pessoa95">
		<plan>
			<act end_time="06:37:06" x="-4159631" y="-578319" type="home"/>
			<leg mode="pt"/>
			<act end_time="22:37:06" x="-4154154" y="-579776" type="work"/>
			<leg mode="pt"/>
			<act x="-4159631" y="-578319" type="home"/>
		</plan>
	</person>

	<person id="pessoa96">
		<plan>
			<act end_time="07:23:27" x="-4154497" y="-583112" type="work"/>
			<leg mode="pt"/>
			<act x="-4155531" y="-571103" type="home"/>
			<act end_time="20:23:27" x="-4155531" y="-571103" type="home"/>
			<leg mode="pt"/>
			<act x="-4154497" y="-583112" type="work"/>
		</plan>
	</person>

	<person id="pessoa97">
		<plan>
			<act end_time="14:39:01" x="-4154435" y="-582920" type="home"/>
			<leg mode="pt"/>
			<act end_time="20:39:01" x="-4155148" y="-582896" type="work"/>
			<leg mode="pt"/>
			<act x="-4154435" y="-582920" type="home"/>
		</plan>
	</person>

	<person id="pessoa98">
		<plan>
			<act end_time="05:31:35" x="-4156959" y="-575560" type="home"/>
			<leg mode="pt"/>