<?xml version="1.0" encoding="utf-8"?>
<!DOCTYPE plans SYSTEM "http://www.matsim.org/files/dtd/plans_v4.dtd">

<plans>

	<person id="pessoa0">
		<plan>
			<act end_time="08:13:49" x="-4159302" y="-573256" type="home"/>
			<leg mode="pt"/>
			<act end_time="14:13:49" x="-4153818" y="-583460" type="shop"/>
			<leg mode="pt"/>
			<act x="-4159302" y="-573256" type="home"/>
		</plan>
	</person>

	<person id="pessoa1">
		<plan>
			<act end_time="14:57:27" x="-4154621" y="-582753" type="home"/>
			<leg mode="pt"/>
			<act x="-4154621" y="-582753" type="home"/>
		</plan>
	</person>

	<person id="pessoa2">
		<plan>
			<act end_time="11:32:23" x="-4157480" y="-574017" type="home"/>
			<leg mode="pt"/>
			<act end_time="18:32:23" x="-4149938" y="-574056" type="work"/>
			<leg mode="pt"/>
			<act x="-4157480" y="-574017" type="home"/>
		</plan>
	</person>

	<person id="pessoa3">
		<plan>
			<act end_time="13:01:56" x="-4157912" y="-580180" type="home"/>
			<leg mode="pt"/>
			<act x="-4157912" y="-580180" type="home"/>
		</plan>
	</person>

	<person id="pessoa4">
		<plan>
			<act end_time="11:20:17" x="-4156047" y="-579772" type="home"/>
			<leg mode="pt"/>
			<act x="-4156047" y="-579772" type="home"/>
		</plan>
	</person>

	<person id="pessoa5">
		<plan>
			<act end_time="13:30:54" x="-4157057" y="-581292" type="home"/>
			<leg mode="pt"/>
			<act x="-4157057" y="-581292" type="home"/>
		</plan>
	</person>

	<person id="pessoa6">
		<plan>
			<act end_time="12:52:51" x="-4155728" y="-580031" type="home"/>
			<leg mode="pt"/>
			<act end_time="20:52:51" x="-4158220" y="-576662" type="shop"/>
			<leg mode="pt"/>
			<act x="-4155728" y="-580031" type="home"/>
		</plan>
	</person>

	<person id="pessoa7">
		<plan>
			<act end_time="04:20:12" x="-4152144" y="-578475" type="home"/>
			<leg mode="pt"/>
			<act end_time="21:20:12" x="-4152686" y="-578600" type="work"/>
			<leg mode="pt"/>
			<act x="-4152144" y="-578475" type="home"/>
		</plan>
	</person>

	<person id="pessoa8">
		<plan>
			<act end_time="13:25:47" x="-4158729" y="-575935" type="home"/>
			<leg mode="pt"/>
			<act x="-4158729" y="-575935" type="home"/>
		</plan>
	</person>

	<person id="pessoa9">
		<plan>
			<act end_time="14:54:02" x="-4150624" y="-578755" type="home"/>
			<leg mode="pt"/>
			<act x="-4150624" y="-578755" type="home"/>
		</plan>
	</person>

	<person id="pessoa10">
		<plan>
			<act end_time="11:45:46" x="-4152913" y="-577522" type="home"/>
			<leg mode="pt"/>
			<act x="-4152913" y="-577522" type="home"/>
		</plan>
	</person>

	<person id="pessoa11">
		<plan>
			<act end_time="12:01:41" x="-4161275" y="-579010" type="home"/>
			<leg mode="pt"/>
			<act x="-4161275" y="-579010" type="home"/>
		</plan>
	</person>

	<person id="pessoa12">
		<plan>
			<act end_time="14:21:55" x="-4160502" y="-578127" type="home"/>
			<leg mode="pt"/>
			<act end_time="18:21:55" x="-4154602" y="-584535" type="shop"/>
			<leg mode="pt"/>
			<act x="-4160502" y="-578127" type="home"/>
		</plan>
	</person>

	<person id="pessoa13">
		<plan>
			<act end_time="05:21:07" x="-4152983" y="-583658" type="home"/>
			<leg mode="pt"/>
			<act x="-4152983" y="-583658" type="home"/>
		</plan>
	</person>

	<person id="pessoa14">
		<plan>
			<act end_time="08:11:02" x="-4157540" y="-576041" type="home"/>
			<leg mode="pt"/>
			<act end_time="12:11:02" x="-4158830" y="-575298" type="work"/>
			<leg mode="pt"/>
			<act end_time="21:11:02" x="-4159866" y="-578284" type="shop"/>
			<leg mode="pt"/>
			<act x="-4157540" y="-576041" type="home"/>
		</plan>
	</person>

	<person id="pessoa15">
		<plan>
			<act end_time="11:26:39" x="-4159686" y="-579770" type="home"/>
			<leg mode="pt"/>
			<act x="-4159686" y="-579770" type="home"/>
		</plan>
	</person>

	<person id="pessoa16">
		<plan>
			<act end_time="13:20:56" x="-4157625" y="-574815" type="home"/>
			<leg mode="pt"/>
			<act x="-4157625" y="-574815" type="home"/>
		</plan>
	</person>

	<person id="pessoa17">
		<plan>
			<act end_time="14:35:25" x="-4156377" y="-574861" type="home"/>
			<leg mode="pt"/>
			<act x="-4156377" y="-574861" type="home"/>
		</plan>
	</person>

	<person id="pessoa18">
		<plan>
			<act end_time="13:43:25" x="-4154805" y="-573775" type="home"/>
			<leg mode="pt"/>
			<act x="-4154805" y="-573775" type="home"/>
		</plan>
	</person>

	<person id="pessoa19">
		<plan>
			<act end_time="07:04:42" x="-4157087" y="-582505" type="home"/>
			<leg mode="pt"/>
			<act end_time="18:04:42" x="-4153070" y="-580459" type="shop"/>
			<leg mode="pt"/>
			<act x="-4157087" y="-582505" type="home"/>
		</plan>
	</person>

	<person id="pessoa20">
		<plan>
			<act end_time="11:54:00" x="-4159982" y="-578799" type="home"/>
			<leg mode="pt"/>
			<act x="-4159982" y="-578799" type="home"/>
		</plan>
	</person>

	<person id="pessoa21">
		<plan>
			<act end_time="11:27:28" x="-4153814" y="-584281" type="home"/>
			<leg mode="pt"/>
			<act end_time="18:27:28" x="-4156658" y="-582053" type="work"/>
			<leg mode="pt"/>
			<act x="-4153814" y="-584281" type="home"/>
		</plan>
	</person>

	<person id="pessoa22">
		<plan>
			<act end_time="11:19:08" x="-4155728" y="-570134" type="home"/>
			<leg mode="pt"/>
			<act x="-4155728" y="-570134" type="home"/>
		</plan>
	</person>

	<person id="pessoa23">
		<plan>
			<act end_time="06:26:16" x="-4162698" y="-579900" type="home"/>
			<leg mode="pt"/>
			<act end_time="19:26:16" x="-4160532" y="-578214" type="work"/>
			<leg mode="pt"/>
			<act x="-4162698" y="-579900" type="home"/>
		</plan>
	</person>

	<person id="pessoa24">
		<plan>
			<act end_time="08:50:58" x="-4161394" y="-571948" type="home"/>
			<leg mode="pt"/>
			<act end_time="13:50:58" x="-4156841" y="-574966" type="shop"/>
			<leg mode="pt"/>
			<act end_time="20:50:58" x="-4164087" y="-577169" type="work"/>
			<leg mode="pt"/>
			<act x="-4161394" y="-571948" type="home"/>
		</plan>
	</person>

	<person id="pessoa25">
		<plan>
			<act end_time="12:02:00" x="-4158859" y="-573695" type="home"/>
			<leg mode="pt"/>
			<act end_time="19:02:00" x="-4163758" y="-584791" type="work"/>
			<leg mode="pt"/>
			<act x="-4158859" y="-573695" type="home"/>
		</plan>
	</person>

	<person id="pessoa26">
		<plan>
			<act end_time="11:04:46" x="-4153373" y="-579813" type="home"/>
			<leg mode="pt"/>
			<act x="-4153373" y="-579813" type="home"/>
		</plan>
	</person>

	<person id="pessoa27">
		<plan>
			<act end_time="11:33:18" x="-4157080" y="-579190" type="home"/>
			<leg mode="pt"/>
			<act x="-4157080" y="-579190" type="home"/>
		</plan>
	</person>

	<person id="pessoa28">
		<plan>
			<act end_time="14:38:10" x="-4156258" y="-575826" type="home"/>
			<leg mode="pt"/>
			<act end_time="17:38:10" x="-4163539" y="-586862" type="shop"/>
			<leg mode="pt"/>
			<act x="-4156258" y="-575826" type="home"/>
		</plan>
	</person>

	<person id="pessoa29">
		<plan>
			<act end_time="14:51:31" x="-4152969" y="-580794" type="home"/>
			<leg mode="pt"/>
			<act end_time="20:51:31" x="-4152538" y="-579844" type="shop"/>
			<leg mode="pt"/>
			<act x="-4152969" y="-580794" type="home"/>
		</plan>
	</person>

	<person id="pessoa30">
		<plan>
			<act end_time="13:45:33" x="-4153222" y="-583769" type="home"/>
			<leg mode="pt"/>
			<act end_time="20:45:33" x="-4156298" y="-582224" type="shop"/>
			<leg mode="pt"/>
			<act x="-4153222" y="-583769" type="home"/>
		</plan>
	</person>

	<person id="pessoa31">
		<plan>
			<act end_time="06:27:08" x="-4154852" y="-585665" type="home"/>
			<leg mode="pt"/>
			<act end_time="13:27:08" x="-4151237" y="-578527" type="work"/>
			<leg mode="pt"/>
			<act x="-4154852" y="-585665" type="home"/>
		</plan>
	</person>

	<person id="pessoa32">
		<plan>
			<act end_time="06:59:53" x="-4154120" y="-581140" type="home"/>
			<leg mode="pt"/>
			<act end_time="18:59:53" x="-4152225" y="-578969" type="shop"/>
			<leg mode="pt"/>
			<act x="-4154120" y="-581140" type="home"/>
		</plan>
	</person>

	<person id="pessoa33">
		<plan>
			<act end_time="12:46:30" x="-4158012" y="-573108" type="home"/>
			<leg mode="pt"/>
			<act x="-4158012" y="-573108" type="home"/>
		</plan>
	</person>

	<person id="pessoa34">
		<plan>
			<act end_time="12:09:10" x="-4162731" y="-586819" type="home"/>
			<leg mode="pt"/>
			<act x="-4162731" y="-586819" type="home"/>
		</plan>
	</person>

	<person id="pessoa35">
		<plan>
			<act end_time="06:06:59" x="-4154996" y="-570669" type="home"/>
			<leg mode="pt"/>
			<act end_time="21:06:59" x="-4151868" y="-578906" type="shop"/>
			<leg mode="pt"/>
			<act x="-4154996" y="-570669" type="home"/>
		</plan>
	</person>

	<person id="pessoa36">
		<plan>
			<act end_time="14:20:24" x="-4155855" y="-576377" type="home"/>
			<leg mode="pt"/>
			<act end_time="17:20:24" x="-4150562" y="-574892" type="shop"/>
			<leg mode="pt"/>
			<act x="-4155855" y="-576377" type="home"/>
		</plan>
	</person>

	<person id="pessoa37">
		<plan>
			<act end_time="11:54:50" x="-4152726" y="-580477" type="home"/>
			<leg mode="pt"/>
			<act x="-4152726" y="-580477" type="home"/>
		</plan>
	</person>

	<person id="pessoa38">
		<plan>
			<act end_time="07:09:00" x="-4160329" y="-578887" type="home"/>
			<leg mode="pt"/>
			<act end_time="22:09:00" x="-4163011" y="-586910" type="shop"/>
			<leg mode="pt"/>
			<act x="-4160329" y="-578887" type="home"/>
		</plan>
	</person>

	<person id="pessoa39">
		<plan>
			<act end_time="12:43:39" x="-4159127" y="-575903" type="home"/>
			<leg mode="pt"/>
			<act end_time="19:43:39" x="-4156547" y="-573662" type="shop"/>
			<leg mode="pt"/>
			<act x="-4159127" y="-575903" type="home"/>
		</plan>
	</person>

	<person id="pessoa40">
		<plan>
			<act end_time="14:15:00" x="-4159385" y="-577907" type="home"/>
			<leg mode="pt"/>
			<act x="-4159385" y="-577907" type="home"/>
		</plan>
	</person>

	<person id="pessoa41">
		<plan>
			<act end_time="11:31:04" x="-4154066" y="-580572" type="home"/>
			<leg mode="pt"/>
			<act x="-4154066" y="-580572" type="home"/>
		</plan>
	</person>

	<person id="pessoa42">
		<plan>
			<act end_time="13:25:48" x="-4158364" y="-575850" type="home"/>
			<leg mode="pt"/>
			<act x="-4158364" y="-575850" type="home"/>
		</plan>
	</person>

	<person id="pessoa43">
		<plan>
			<act end_time="05:53:15" x="-4157601" y="-575747" type="home"/>
			<leg mode="pt"/>
			<act x="-4157601" y="-575747" type="home"/>
		</plan>
	</person>

	<person id="pessoa44">
		<plan>
			<act end_time="07:22:39" x="-4157593" y="-576543" type="home"/>
			<leg mode="pt"/>
			<act x="-4157593" y="-576543" type="home"/>
		</plan>
	</person>

	<person id="pessoa45">
		<plan>
			<act end_time="07:08:39" x="-4158013" y="-574232" type="home"/>
			<leg mode="pt"/>
			<act x="-4158013" y="-574232" type="home"/>
		</plan>
	</person>

	<person id="pessoa46">
		<plan>
			<act end_time="11:37:54" x="-4158656" y="-575599" type="home"/>
			<leg mode="pt"/>
			<act x="-4158656" y="-575599" type="home"/>
		</plan>
	</person>

	<person id="pessoa47">
		<plan>
			<act end_time="08:16:07" x="-4152559" y="-579753" type="home"/>
			<leg mode="pt"/>
			<act end_time="18:16:07" x="-4156138" y="-582876" type="work"/>
			<leg mode="pt"/>
			<act x="-4152559" y="-579753" type="home"/>
		</plan>
	</person>

	<person id="pessoa48">
		<plan>
			<act end_time="11:05:37" x="-4157282" y="-580148" type="home"/>
			<leg mode="pt"/>
			<act x="-4157282" y="-580148" type="home"/>
		</plan>
	</person>

	<person id="pessoa49">
		<plan>
			<act end_time="14:56:47" x="-4151137" y="-577983" type="home"/>
			<leg mode="pt"/>
			<act x="-4151137" y="-577983" type="home"/>
		</plan>
	</person>

	<person id="pessoa50">
		<plan>
			<act end_time="13:00:03" x="-4157592" y="-577603" type="home"/>
			<leg mode="pt"/>
			<act x="-4157592" y="-577603" type="home"/>
		</plan>
	</person>

	<person id="pessoa51">
		<plan>
			<act end_time="04:40:36" x="-4155523" y="-583113" type="home"/>
			<leg mode="pt"/>
			<act end_time="13:40:36" x="-4157586" y="-583050" type="shop"/>
			<leg mode="pt"/>
			<act end_time="18:40:36" x="-4151988" y="-578231" type="work"/>
			<leg mode="pt"/>
			<act x="-4155523" y="-583113" type="home"/>
		</plan>
	</person>

	<person id="pessoa52">
		<plan>
			<act end_time="11:25:33" x="-4159284" y="-580530" type="home"/>
			<leg mode="pt"/>
			<act x="-4159284" y="-580530" type="home"/>
		</plan>
	</person>

	<person id="pessoa53">
		<plan>
			<act end_time="04:14:43" x="-4157161" y="-574030" type="home"/>
			<leg mode="pt"/>
			<act end_time="17:14:43" x="-4158956" y="-573933" type="work"/>
			<leg mode="pt"/>
			<act x="-4157161" y="-574030" type="home"/>
		</plan>
	</person>

	<person id="pessoa54">
		<plan>
			<act end_time="06:26:37" x="-4153094" y="-584040" type="home"/>
			<leg mode="pt"/>
			<act end_time="13:26:37" x="-4156564" y="-574722" type="work"/>
			<leg mode="pt"/>
			<act x="-4153094" y="-584040" type="home"/>
		</plan>
	</person>

	<person id="pessoa55">
		<plan>
			<act end_time="13:00:56" x="-4150596" y="-579820" type="home"/>
			<leg mode="pt"/>
			<act x="-4150596" y="-579820" type="home"/>
		</plan>
	</person>

	<person id="pessoa56">
		<plan>
			<act end_time="12:05:52" x="-4157821" y="-573518" type="home"/>
			<leg mode="pt"/>
			<act x="-4157821" y="-573518" type="home"/>
		</plan>
	</person>

	<person id="pessoa57">
		<plan>
			<act end_time="11:49:47" x="-4159829" y="-575250" type="home"/>
			<leg mode="pt"/>
			<act x="-4159829" y="-575250" type="home"/>
		</plan>
	</person>

	<person id="pessoa58">
		<plan>
			<act end_time="13:53:15" x="-4150471" y="-581950" type="home"/>
			<leg mode="pt"/>
			<act x="-4150471" y="-581950" type="home"/>
		</plan>
	</person>

	<person id="pessoa59">
		<plan>
			<act end_time="12:29:47" x="-4153579" y="-583259" type="home"/>
			<leg mode="pt"/>
			<act x="-4153579" y="-583259" type="home"/>
		</plan>
	</person>

	<person id="pessoa60">
		<plan>
			<act end_time="14:15:20" x="-4158437" y="-579779" type="home"/>
			<leg mode="pt"/>
			<act end_time="20:15:20" x="-4156561" y="-575138" type="work"/>
			<leg mode="pt"/>
			<act x="-4158437" y="-579779" type="home"/>
		</plan>
	</person>

	<person id="pessoa61">
		<plan>
			<act end_time="14:09:56" x="-4159721" y="-578416" type="home"/>
			<leg mode="pt"/>
			<act x="-4159721" y="-578416" type="home"/>
		</plan>
	</person>

	<person id="pessoa62">
		<plan>
			<act end_time="06:04:47" x="-4160784" y="-577418" type="home"/>
			<leg mode="pt"/>
			<act end_time="17:04:47" x="-4160622" y="-576480" type="shop"/>
			<leg mode="pt"/>
			<act x="-4160784" y="-577418" type="home"/>
		</plan>
	</person>

	<person id="pessoa63">
		<plan>
			<act end_time="04:51:33" x="-4159255" y="-573241" type="home"/>
			<leg mode="pt"/>
			<act end_time="13:51:33" x="-4152536" y="-579107" type="work"/>
			<leg mode="pt"/>
			<act x="-4159255" y="-573241" type="home"/>
		</plan>
	</person>

	<person id="pessoa64">
		<plan>
			<act end_time="11:39:20" x="-4157436" y="-577420" type="home"/>
			<leg mode="pt"/>
			<act end_time="22:39:20" x="-4158822" y="-577006" type="shop"/>
			<leg mode="pt"/>
			<act x="-4157436" y="-577420" type="home"/>
		</plan>
	</person>

	<person id="pessoa65">
		<plan>
			<act end_time="12:29:41" x="-4160434" y="-578563" type="home"/>
			<leg mode="pt"/>
			<act x="-4160434" y="-578563" type="home"/>
		</plan>
	</person>

	<person id="pessoa66">
		<plan>
			<act end_time="08:47:58" x="-4161124" y="-572217" type="home"/>
			<leg mode="pt"/>
			<act end_time="12:47:58" x="-4159085" y="-578533" type="work"/>
			<leg mode="pt"/>
			<act x="-4161124" y="-572217" type="home"/>
		</plan>
	</person>

	<person id="pessoa67">
		<plan>
			<act end_time="06:50:31" x="-4156064" y="-580804" type="home"/>
			<leg mode="pt"/>
			<act end_time="11:50:31" x="-4155363" y="-582231" type="shop"/>
			<leg mode="pt"/>
			<act x="-4156064" y="-580804" type="home"/>
		</plan>
	</person>

	<person id="pessoa68">
		<plan>
			<act end_time="14:53:21" x="-4156857" y="-576839" type="home"/>
			<leg mode="pt"/>
			<act end_time="19:53:21" x="-4154989" y="-582856" type="work"/>
			<leg mode="pt"/>
			<act x="-4156857" y="-576839" type="home"/>
		</plan>
	</person>

	<person id="pessoa69">
		<plan>
			<act end_time="11:23:29" x="-4154083" y="-579631" type="home"/>
			<leg mode="pt"/>
			<act x="-4154083" y="-579631" type="home"/>
		</plan>
	</person>

	<person id="pessoa70">
		<plan>
			<act end_time="11:52:42" x="-4159960" y="-574523" type="home"/>
			<leg mode="pt"/>
			<act x="-4159960" y="-574523" type="home"/>
		</plan>
	</person>

	<person id="pessoa71">
		<plan>
			<act end_time="08:27:20" x="-4154865" y="-580456" type="home"/>
			<leg mode="pt"/>
			<act end_time="11:27:20" x="-4159506" y="-573111" type="work"/>
			<leg mode="pt"/>
			<act end_time="18:27:20" x="-4160287" y="-571335" type="shop"/>
			<leg mode="pt"/>
			<act x="-4154865" y="-580456" type="home"/>
		</plan>
	</person>

	<person id="pessoa72">
		<plan>
			<act end_time="13:22:15" x="-4161156" y="-578701" type="home"/>
			<leg mode="pt"/>
			<act end_time="22:22:15" x="-4154819" y="-579850" type="work"/>
			<leg mode="pt"/>
			<act x="-4161156" y="-578701" type="home"/>
		</plan>
	</person>

	<person id="pessoa73">
		<plan>
			<act end_time="06:57:43" x="-4161268" y="-578539" type="home"/>
			<leg mode="pt"/>
			<act end_time="12:57:43" x="-4154829" y="-582544" type="shop"/>
			<leg mode="pt"/>
			<act end_time="18:57:43" x="-4151434" y="-580617" type="work"/>
			<leg mode="pt"/>
			<act x="-4161268" y="-578539" type="home"/>
		</plan>
	</person>

	<person id="pessoa74">
		<plan>
			<act end_time="08:05:12" x="-4159027" y="-577378" type="home"/>
			<leg mode="pt"/>
			<act end_time="11:05:12" x="-4157234" y="-581085" type="work"/>
			<leg mode="pt"/>
			<act x="-4159027" y="-577378" type="home"/>
		</plan>
	</person>

	<person id="pessoa75">
		<plan>
			<act end_time="12:35:12" x="-4161129" y="-582585" type="home"/>
			<leg mode="pt"/>
			<act x="-4161129" y="-582585" type="home"/>
		</plan>
	</person>

	<person id="pessoa76">
		<plan>
			<act end_time="07:24:36" x="-4153448" y="-585381" type="home"/>
			<leg mode="pt"/>
			<act end_time="14:24:36" x="-4156228" y="-583439" type="work"/>
			<leg mode="pt"/>
			<act x="-4153448" y="-585381" type="home"/>
		</plan>
	</person>

	<person id="pessoa77">
		<plan>
			<act end_time="12:23:37" x="-4156954" y="-573558" type="home"/>
			<leg mode="pt"/>
			<act x="-4156954" y="-573558" type="home"/>
		</plan>
	</person>

	<person id="pessoa78">
		<plan>
			<act end_time="13:20:48" x="-4159858" y="-577833" type="home"/>
			<leg mode="pt"/>
			<act x="-4159858" y="-577833" type="home"/>
		</plan>
	</person>

	<person id="pessoa79">
		<plan>
			<act end_time="13:02:17" x="-4153287" y="-580497" type="home"/>
			<leg mode="pt"/>
			<act end_time="17:02:17" x="-4160172" y="-578532" type="work"/>
			<leg mode="pt"/>
			<act x="-4153287" y="-580497" type="home"/>
		</plan>
	</person>

	<person id="pessoa80">
		<plan>
			<act end_time="05:47:41" x="-4158926" y="-573722" type="home"/>
			<leg mode="pt"/>
			<act end_time="20:47:41" x="-4155177" y="-579995" type="shop"/>
			<leg mode="pt"/>
			<act x="-4158926" y="-573722" type="home"/>
		</plan>
	</person>

	<person id="pessoa81">
		<plan>
			<act end_time="14:24:50" x="-4153359" y="-578079" type="home"/>
			<leg mode="pt"/>
			<act x="-4153359" y="-578079" type="home"/>
		</plan>
	</person>

	<person id="pessoa82">
		<plan>
			<act end_time="08:44:13" x="-4156131" y="-582125" type="home"/>
			<leg mode="pt"/>
			<act x="-4156131" y="-582125" type="home"/>
		</plan>
	</person>

	<person id="pessoa83">
		<plan>
			<act end_time="14:21:38" x="-4154714" y="-581971" type="home"/>
			<leg mode="pt"/>
			<act end_time="17:21:38" x="-4154846" y="-582864" type="work"/>
			<leg mode="pt"/>
			<act x="-4154714" y="-581971" type="home"/>
		</plan>
	</person>

	<person id="pessoa84">
		<plan>
			<act end_time="13:15:41" x="-4152241" y="-578467" type="home"/>
			<leg mode="pt"/>
			<act x="-4152241" y="-578467" type="home"/>
		</plan>
	</person>

	<person id="pessoa85">
		<plan>
			<act end_time="13:09:33" x="-4153169" y="-581057" type="home"/>
			<leg mode="pt"/>
			<act x="-4153169" y="-581057" type="home"/>
		</plan>
	</person>

	<person id="pessoa86">
		<plan>
			<act end_time="12:33:24" x="-4149046" y="-576721" type="home"/>
			<leg mode="pt"/>
			<act end_time="18:33:24" x="-4157251" y="-581214" type="shop"/>
			<leg mode="pt"/>
			<act x="-4149046" y="-576721" type="home"/>
		</plan>
	</person>

	<person id="pessoa87">
		<plan>
			<act end_time="14:56:17" x="-4156148" y="-581490" type="home"/>
			<leg mode="pt"/>
			<act x="-4156148" y="-581490" type="home"/>
		</plan>
	</person>

	<person id="pessoa88">
		<plan>
			<act end_time="13:40:56" x="-4155837" y="-581699" type="home"/>
			<leg mode="pt"/>
			<act x="-4155837" y="-581699" type="home"/>
		</plan>
	</person>

	<person id="pessoa89">
		<plan>
			<act end_time="08:31:44" x="-4150064" y="-574244" type="home"/>
			<leg mode="pt"/>
			<act end_time="22:31:44" x="-4160151" y="-576510" type="shop"/>
			<leg mode="pt"/>
			<act x="-4150064" y="-574244" type="home"/>
		</plan>
	</person>

	<person id="pessoa90">
		<plan>
			<act end_time="07:28:40" x="-4162301" y="-585024" type="home"/>
			<leg mode="pt"/>
			<act end_time="12:28:40" x="-4158832" y="-575884" type="work"/>
			<leg mode="pt"/>
			<act end_time="21:28:40" x="-4162953" y="-584129" type="shop"/>
			<leg mode="pt"/>
			<act x="-4162301" y="-585024" type="home"/>
		</plan>
	</person>

	<person id="pessoa91">
		<plan>
			<act end_time="12:35:58" x="-4159423" y="-573698" type="home"/>
			<leg mode="pt"/>
			<act x="-4159423" y="-573698" type="home"/>
		</plan>
	</person>

	<person id="pessoa92">
		<plan>
			<act end_time="08:10:00" x="-4152735" y="-578974" type="home"/>
			<leg mode="pt"/>
			<act end_time="14:10:00" x="-4152318" y="-577929" type="work"/>
			<leg mode="pt"/>
			<act x="-4152735" y="-578974" type="home"/>
		</plan>
	</person>

	<person id="pessoa93">
		<plan>
			<act end_time="06:29:57" x="-4155385" y="-584540" type="home"/>
			<leg mode="pt"/>
			<act end_time="20:29:57" x="-4154519" y="-579458" type="work"/>
			<leg mode="pt"/>
			<act x="-4155385" y="-584540" type="home"/>
		</plan>
	</person>

	<person id="pessoa94">
		<plan>
			<act end_time="04:52:20" x="-4155824" y="-580924" type="home"/>
			<leg mode="pt"/>
			<act end_time="13:52:20" x="-4156581" y="-582527" type="work"/>
			<leg mode="pt"/>
			<act x="-4155824" y="-580924" type="home"/>
		</plan>
	</person>

	<person id="pessoa95">
		<plan>
			<act end_time="12:32:56" x="-4160227" y="-574732" type="home"/>
			<leg mode="pt"/>
			<act x="-4160227" y="-574732" type="home"/>
		</plan>
	</person>

	<person id="pessoa96">
		<plan>
			<act end_time="12:34:03" x="-4160180" y="-579801" type="home"/>
			<leg mode="pt"/>
			<act end_time="20:34:03" x="-4153673" y="-578940" type="work"/>
			<leg mode="pt"/>
			<act x="-4160180" y="-579801" type="home"/>
		</plan>
	</person>

	<person id="pessoa97">
		<plan>
			<act end_time="06:06:02" x="-4159601" y="-578676" type="home"/>
			<leg mode="pt"/>
			<act end_time="14:06:02" x="-4154407" y="-579822" type="work"/>
			<leg mode="pt"/>
			<act end_time="20:06:02" x="-4154304" y="-579872" type="shop"/>
			<leg mode="pt"/>
			<act x="-4159601" y="-578676" type="home"/>
		</plan>
	</person>

	<person id="pessoa98">
		<plan>
			<act end_time="11:16:33" x="-4155550" y="-575771" type="home"/>
			<leg mode="pt"/>
			<act x="-4155550" y="-575771" type="home"/>
		</plan>
	</person>

	<person id="pessoa99">
		<plan>
			<act end_time="13:50:57" x="-4157224" y="-573322" type="home"/>
			<leg mode="pt"/>
			<act end_time="21:50:57" x="-4158808" y="-581061" type="work"/>
			<leg mode="pt"/>
			<act x="-4157224" y="-573322" type="home"/>
		</plan>
	</person>

	<person id="pessoa100">
		<plan>
			<act end_time="11:04:38" x="-4152813" y="-581223" type="home"/>
			<leg mode="pt"/>
			<act x="-4152813" y="-581223" type="home"/>
		</plan>
	</person>

	<person id="pessoa101">
		<plan>
			<act end_time="04:31:52" x="-4157875" y="-574613" type="home"/>
			<leg mode="pt"/>
			<act end_time="11:31:52" x="-4157316" y="-576920" type="work"/>
			<leg mode="pt"/>
			<act x="-4157875" y="-574613" type="home"/>
		</plan>
	</person>

	<person id="pessoa102">
		<plan>
			<act end_time="12:11:28" x="-4161143" y="-582553" type="home"/>
			<leg mode="pt"/>
			<act end_time="18:11:28" x="-4156035" y="-579855" type="work"/>
			<leg mode="pt"/>
			<act x="-4161143" y="-582553" type="home"/>
		</plan>
	</person>

	<person id="pessoa103">
		<plan>
			<act end_time="08:59:47" x="-4155721" y="-580628" type="home"/>
			<leg mode="pt"/>
			<act end_time="12:59:47" x="-4157245" y="-583483" type="work"/>
			<leg mode="pt"/>
			<act end_time="21:59:47" x="-4152088" y="-581224" type="shop"/>
			<leg mode="pt"/>
			<act x="-4155721" y="-580628" type="home"/>
		</plan>
	</person>

	<person id="pessoa104">
		<plan>
			<act end_time="07:38:16" x="-4160154" y="-579897" type="home"/>
			<leg mode="pt"/>
			<act end_time="21:38:16" x="-4156605" y="-577730" type="work"/>
			<leg mode="pt"/>
			<act x="-4160154" y="-579897" type="home"/>
		</plan>
	</person>

	<person id="pessoa105">
		<plan>
			<act end_time="11:18:17" x="-4157783" y="-572898" type="home"/>
			<leg mode="pt"/>
			<act x="-4157783" y="-572898" type="home"/>
		</plan>
	</person>

	<person id="pessoa106">
		<plan>
			<act end_time="12:23:12" x="-4155012" y="-584844" type="home"/>
			<leg mode="pt"/>
			<act x="-4155012" y="-584844" type="home"/>
		</plan>
	</person>

	<person id="pessoa107">
		<plan>
			<act end_time="13:33:33" x="-4156139" y="-573894" type="home"/>
			<leg mode="pt"/>
			<act x="-4156139" y="-573894" type="home"/>
		</plan>
	</person>

	<person id="pessoa108">
		<plan>
			<act end_time="08:39:01" x="-4158821" y="-573587" type="home"/>
			<leg mode="pt"/>
			<act end_time="21:39:01" x="-4155049" y="-571021" type="shop"/>
			<leg mode="pt"/>
			<act x="-4158821" y="-573587" type="home"/>
		</plan>
	</person>

	<person id="pessoa109">
		<plan>
			<act end_time="14:31:57" x="-4158034" y="-580141" type="home"/>
			<leg mode="pt"/>
			<act end_time="19:31:57" x="-4160586" y="-579407" type="work"/>
			<leg mode="pt"/>
			<act x="-4158034" y="-580141" type="home"/>
		</plan>
	</person>

	<person id="pessoa110">
		<plan>
			<act end_time="05:17:09" x="-4156608" y="-581628" type="home"/>
			<leg mode="pt"/>
			<act end_time="19:17:09" x="-4157121" y="-582548" type="work"/>
			<leg mode="pt"/>
			<act x="-4156608" y="-581628" type="home"/>
		</plan>
	</person>

	<person id="pessoa111">
		<plan>
			<act end_time="05:44:42" x="-4159479" y="-574564" type="home"/>
			<leg mode="pt"/>
			<act x="-4159479" y="-574564" type="home"/>
		</plan>
	</person>

	<person id="pessoa112">
		<plan>
			<act end_time="11:18:55" x="-4152641" y="-579086" type="home"/>
			<leg mode="pt"/>
			<act x="-4152641" y="-579086" type="home"/>
		</plan>
	</person>

	<person id="pessoa113">
		<plan>
			<act end_time="14:07:57" x="-4154070" y="-581184" type="home"/>
			<leg mode="pt"/>
			<act x="-4154070" y="-581184" type="home"/>
		</plan>
	</person>

	<person id="pessoa114">
		<plan>
			<act end_time="12:13:14" x="-4151707" y="-581529" type="home"/>
			<leg mode="pt"/>
			<act x="-4151707" y="-581529" type="home"/>
		</plan>
	</person>

	<person id="pessoa115">
		<plan>
			<act end_time="07:20:10" x="-4152547" y="-578181" type="home"/>
			<leg mode="pt"/>
			<act end_time="11:20:10" x="-4150739" y="-579006" type="work"/>
			<leg mode="pt"/>
			<act x="-4152547" y="-578181" type="home"/>
		</plan>
	</person>

	<person id="pessoa116">
		<plan>
			<act end_time="14:38:05" x="-4156347" y="-574563" type="home"/>
			<leg mode="pt"/>
			<act x="-4156347" y="-574563" type="home"/>
		</plan>
	</person>

	<person id="pessoa117">
		<plan>
			<act end_time="13:31:18" x="-4155511" y="-584631" type="home"/>
			<leg mode="pt"/>
			<act x="-4155511" y="-584631" type="home"/>
		</plan>
	</person>

	<person id="pessoa118">
		<plan>
			<act end_time="07:18:46" x="-4157499" y="-577705" type="home"/>
			<leg mode="pt"/>
			<act end_time="19:18:46" x="-4159802" y="-578048" type="work"/>
			<leg mode="pt"/>
			<act x="-4157499" y="-577705" type="home"/>
		</plan>
	</person>

	<person id="pessoa119">
		<plan>
			<act end_time="04:14:27" x="-4156094" y="-577997" type="home"/>
			<leg mode="pt"/>
			<act x="-4156094" y="-577997" type="home"/>
		</plan>
	</person>

	<person id="pessoa120">
		<plan>
			<act end_time="08:20:05" x="-4154047" y="-580167" type="home"/>
			<leg mode="pt"/>
			<act end_time="21:20:05" x="-4154481" y="-582481" type="work"/>
			<leg mode="pt"/>
			<act x="-4154047" y="-580167" type="home"/>
		</plan>
	</person>

	<person id="pessoa121">
		<plan>
			<act end_time="07:12:06" x="-4161240" y="-572051" type="home"/>
			<leg mode="pt"/>
			<act x="-4161240" y="-572051" type="home"/>
		</plan>
	</person>

	<person id="pessoa122">
		<plan>
			<act end_time="13:12:03" x="-4154110" y="-579529" type="home"/>
			<leg mode="pt"/>
			<act x="-4154110" y="-579529" type="home"/>
		</plan>
	</person>

	<person id="pessoa123">
		<plan>
			<act end_time="12:51:53" x="-4160184" y="-570830" type="home"/>
			<leg mode="pt"/>
			<act x="-4160184" y="-570830" type="home"/>
		</plan>
	</person>

	<person id="pessoa124">
		<plan>
			<act end_time="14:08:15" x="-4159667" y="-574230" type="home"/>
			<leg mode="pt"/>
			<act x="-4159667" y="-574230" type="home"/>
		</plan>
	</person>

	<person id="pessoa125">
		<plan>
			<act end_time="05:17:22" x="-4155087" y="-583336" type="home"/>
			<leg mode="pt"/>
			<act end_time="13:17:22" x="-4161363" y="-578848" type="shop"/>
			<leg mode="pt"/>
			<act end_time="18:17:22" x="-4152788" y="-579958" type="work"/>
			<leg mode="pt"/>
			<act x="-4155087" y="-583336" type="home"/>
		</plan>
	</person>

	<person id="pessoa126">
		<plan>
			<act end_time="13:49:16" x="-4161199" y="-578917" type="home"/>
			<leg mode="pt"/>