<?xml version="1.0" encoding="utf-8"?>
<!DOCTYPE facilities SYSTEM "http://www.matsim.org/files/dtd/facilities_v1.dtd">

<facilities>

	<facility id="casaPessoa0" x="-4152994" y="-580285"/>
	<facility id="trabalho0" x="-4156951" y="-578508"/>
	<facility id="loja0" x="-4156565.550519179" y="-581642.866739155"/>

	<facility id="casaPessoa1" x="-4156303" y="-581281"/>
	<facility id="trabalho1" x="-4157201.5865013045" y="-579319.2624705215"/>

	<facility id="casaPessoa2" x="-4158277" y="-577823"/>
	<facility id="trabalho2" x="-4154317" y="-580222"/>
	<facility id="loja2" x="-4156026.2154442132" y="-581828.0684483361"/>

	<facility id="casaPessoa3" x="-4151786" y="-581771"/>
	<facility id="trabalho3" x="-4157756.8845788785" y="-579474.9540803871"/>
	<facility id="loja3" x="-4155862.6393245687" y="-580533.0976414317"/>

	<facility id="casaPessoa4" x="-4156621" y="-576372"/>
	<facility id="trabalho4" x="-4155017" y="-580082"/>
	<facility id="loja4" x="-4156124.676589124" y="-580902.1217382654"/>

	<facility id="casaPessoa5" x="-4155212" y="-579944"/>
	<facility id="loja5" x="-4154794" y="-581494"/>

	<facility id="casaPessoa6" x="-4152907" y="-578736"/>
	<facility id="trabalho6" x="-4157342.4901398444" y="-578560.2941117022"/>

	<facility id="casaPessoa7" x="-4159420.67637998" y="-574679.3780464272"/>
	<facility id="trabalho7" x="-4151081" y="-581749"/>
	<facility id="loja7" x="-4156648" y="-581603"/>

	<facility id="casaPessoa8" x="-4156667" y="-578131"/>
	<facility id="trabalho8" x="-4158585" y="-574042"/>
	<facility id="loja8" x="-4153770" y="-583288"/>

	<facility id="casaPessoa9" x="-4158033" y="-573534"/>
	<facility id="trabalho9" x="-4156005" y="-580849"/>
	<facility id="loja9" x="-4156330" y="-575822"/>

	<facility id="casaPessoa10" x="-4155643" y="-580385"/>
	<facility id="trabalho10" x="-4156679.646271913" y="-578344.5651720845"/>
	<facility id="loja10" x="-4155355" y="-581336"/>

	<facility id="casaPessoa11" x="-4158861.1661186055" y="-574788.1078788858"/>
	<facility id="trabalho11" x="-4156061" y="-584448"/>

	<facility id="casaPessoa12" x="-4160436" y="-579860"/>
	<facility id="trabalho12" x="-4156949" y="-581400"/>
	<facility id="loja12" x="-4155526.174706836" y="-581724.4635794639"/>

	<facility id="casaPessoa13" x="-4159864" y="-575335"/>
	<facility id="trabalho13" x="-4158003" y="-583631"/>

	<facility id="casaPessoa14" x="-4159687.974280419" y="-576398.316925495"/>
	<facility id="trabalho14" x="-4156210.75421802" y="-578525.1967759492"/>
	<facility id="loja14" x="-4162634" y="-584924"/>

	<facility id="casaPessoa15" x="-4155569" y="-584566"/>
	<facility id="trabalho15" x="-4163473" y="-586574"/>
	<facility id="loja15" x="-4155530.365854731" y="-580873.9965819586"/>

	<facility id="casaPessoa16" x="-4155730" y="-570057"/>
	<facility id="trabalho16" x="-4158752" y="-575888"/>
	<facility id="loja16" x="-4156031.9068669043" y="-581563.3595706809"/>

	<facility id="casaPessoa17" x="-4162286" y="-584962"/>
	<facility id="trabalho17" x="-4156537.022362331" y="-579797.3842320046"/>
	<facility id="loja17" x="-4155753.586304978" y="-581572.6817852976"/>

	<facility id="casaPessoa18" x="-4152426" y="-580130"/>
	<facility id="trabalho18" x="-4160419" y="-579589"/>
	<facility id="loja18" x="-4155970.2011940656" y="-581138.591194964"/>

	<facility id="casaPessoa19" x="-4158424" y="-586409"/>
	<facility id="trabalho19" x="-4162526" y="-584873"/>
	<facility id="loja19" x="-4156425.153315837" y="-580658.8295084782"/>

	<facility id="casaPessoa20" x="-4157564" y="-577202"/>
	<facility id="trabalho20" x="-4158365" y="-576446"/>
	<facility id="loja20" x="-4155416.474190765" y="-581795.3160357429"/>

	<facility id="casaPessoa21" x="-4154208" y="-583189"/>
	<facility id="trabalho21" x="-4150581" y="-574906"/>

	<facility id="casaPessoa22" x="-4156968" y="-581871"/>
	<facility id="trabalho22" x="-4153330" y="-585271"/>
	<facility id="loja22" x="-4155946.0093628545" y="-580350.6259762543"/>

	<facility id="casaPessoa23" x="-4154067" y="-584264"/>
	<facility id="trabalho23" x="-4163822" y="-586730"/>
	<facility id="loja23" x="-4156537.773667018" y="-581631.8423589665"/>

	<facility id="casaPessoa24" x="-4158334.287718352" y="-575746.9163835186"/>
	<facility id="loja24" x="-4155166.2450703057" y="-581432.0390869144"/>

	<facility id="casaPessoa25" x="-4157830.768367213" y="-574254.3319850183"/>
	<facility id="trabalho25" x="-4162270" y="-587055"/>
	<facility id="loja25" x="-4156379.835511275" y="-581699.0361089873"/>

	<facility id="casaPessoa26" x="-4159102.9131438094" y="-576367.5300926324"/>
	<facility id="trabalho26" x="-4156296.2948035737" y="-579720.2746456999"/>
	<facility id="loja26" x="-4156347.1379606263" y="-580679.75878361"/>

	<facility id="casaPessoa27" x="-4157881.318675003" y="-575576.3810736283"/>
	<facility id="trabalho27" x="-4156207.065573983" y="-578074.5178815302"/>
	<facility id="loja27" x="-4152487" y="-580156"/>

	<facility id="casaPessoa28" x="-4155277" y="-581671"/>
	<facility id="trabalho28" x="-4155331" y="-581385"/>
	<facility id="loja28" x="-4154817" y="-583689"/>

	<facility id="casaPessoa29" x="-4150745" y="-582443"/>
	<facility id="trabalho29" x="-4154630" y="-581361"/>
	<facility id="loja29" x="-4156051.3263821993" y="-580924.623339811"/>

	<facility id="casaPessoa30" x="-4159259.4138397956" y="-576797.8052531474"/>
	<facility id="trabalho30" x="-4153901" y="-580231"/>
	<facility id="loja30" x="-4155383.8553017345" y="-581066.6445676088"/>

	<facility id="casaPessoa31" x="-4158014.6390903364" y="-576760.2770264401"/>
	<facility id="trabalho31" x="-4158588" y="-582658"/>
	<facility id="loja31" x="-4155512" y="-576709"/>

	<facility id="casaPessoa32" x="-4157759.232897893" y="-575050.4951150027"/>
	<facility id="trabalho32" x="-4159838" y="-579888"/>

	<facility id="casaPessoa33" x="-4154683" y="-571013"/>
	<facility id="trabalho33" x="-4155338" y="-581770"/>
	<facility id="loja33" x="-4160502" y="-579664"/>

	<facility id="casaPessoa34" x="-4154702" y="-582866"/>
	<facility id="trabalho34" x="-4157146.5141215734" y="-578562.726395863"/>

	<facility id="casaPessoa35" x="-4154972" y="-583126"/>
	<facility id="trabalho35" x="-4152278" y="-580125"/>
	<facility id="loja35" x="-4155385.5549853374" y="-581733.4223395964"/>

	<facility id="casaPessoa36" x="-4158477.821734885" y="-576840.8814258992"/>
	<facility id="trabalho36" x="-4159546" y="-577510"/>
	<facility id="loja36" x="-4151270" y="-581966"/>

	<facility id="casaPessoa37" x="-4159001.6090148147" y="-576430.4318462226"/>
	<facility id="loja37" x="-4160960" y="-572229"/>

	<facility id="casaPessoa38" x="-4158285.0085784905" y="-574776.9820276805"/>
	<facility id="trabalho38" x="-4157301.2688217233" y="-578860.1230128924"/>
	<facility id="loja38" x="-4155097.837284866" y="-581291.6495894948"/>

	<facility id="casaPessoa39" x="-4158738" y="-573282"/>
	<facility id="trabalho39" x="-4157847.9553890405" y="-579062.2541925415"/>

	<facility id="casaPessoa40" x="-4152411" y="-579039"/>
	<facility id="trabalho40" x="-4154368" y="-583301"/>

	<facility id="casaPessoa41" x="-4158018.5001607803" y="-575912.1709421758"/>
	<facility id="trabalho41" x="-4156675.6095294296" y="-579525.5946018877"/>

	<facility id="casaPessoa42" x="-4157887.493559465" y="-575942.1136618783"/>
	<facility id="trabalho42" x="-4155929" y="-577583"/>
	<facility id="loja42" x="-4159604" y="-573815"/>

	<facility id="casaPessoa43" x="-4159622.173129185" y="-576383.4924204618"/>
	<facility id="trabalho43" x="-4155296" y="-583464"/>

	<facility id="casaPessoa44" x="-4161584" y="-584664"/>
	<facility id="trabalho44" x="-4158685" y="-573696"/>
	<facility id="loja44" x="-4155881.208652681" y="-580142.8562477333"/>

	<facility id="casaPessoa45" x="-4157568" y="-583262"/>
	<facility id="trabalho45" x="-4155994" y="-584295"/>
	<facility id="loja45" x="-4160348" y="-579507"/>

	<facility id="casaPessoa46" x="-4152361" y="-578614"/>
	<facility id="trabalho46" x="-4150656" y="-582729"/>
	<facility id="loja46" x="-4154125" y="-579960"/>

	<facility id="casaPessoa47" x="-4154883" y="-583286"/>
	<facility id="trabalho47" x="-4157194" y="-581138"/>

	<facility id="casaPessoa48" x="-4161168" y="-572785"/>
	<facility id="loja48" x="-4155703.2988649686" y="-581157.9145944212"/>

	<facility id="casaPessoa49" x="-4158300.8358646287" y="-576471.1212676518"/>
	<facility id="trabalho49" x="-4161004" y="-575932"/>
	<facility id="loja49" x="-4155181.4075194458" y="-581420.4456067099"/>

	<facility id="casaPessoa50" x="-4161159" y="-578088"/>
	<facility id="trabalho50" x="-4157396" y="-578567"/>
	<facility id="loja50" x="-4155980.7694295286" y="-580978.3617076912"/>

	<facility id="casaPessoa51" x="-4159553.2596438243" y="-573963.5696309016"/>
	<facility id="trabalho51" x="-4158429" y="-573753"/>
	<facility id="loja51" x="-4161367" y="-572232"/>

	<facility id="casaPessoa52" x="-4154410" y="-583846"/>
	<facility id="trabalho52" x="-4150267" y="-581618"/>
	<facility id="loja52" x="-4150455" y="-579282"/>

	<facility id="casaPessoa53" x="-4152181" y="-580881"/>
	<facility id="trabalho53" x="-4156088.3222053703" y="-578271.1090520633"/>
	<facility id="loja53" x="-4160828" y="-578095"/>

	<facility id="casaPessoa54" x="-4151455" y="-578379"/>
	<facility id="loja54" x="-4159241" y="-574248"/>

	<facility id="casaPessoa55" x="-4154607" y="-582935"/>
	<facility id="trabalho55" x="-4160765" y="-580065"/>
	<facility id="loja55" x="-4152271" y="-578472"/>

	<facility id="casaPessoa56" x="-4159141" y="-576340"/>
	<facility id="trabalho56" x="-4158900" y="-576068"/>
	<facility id="loja56" x="-4154064" y="-575662"/>

	<facility id="casaPessoa57" x="-4154699" y="-582884"/>
	<facility id="trabalho57" x="-4159900" y="-578572"/>
	<facility id="loja57" x="-4152573" y="-579007"/>

	<facility id="casaPessoa58" x="-4158961" y="-582524"/>
	<facility id="trabalho58" x="-4157553.1238599666" y="-579816.0931236377"/>
	<facility id="loja58" x="-4156586.6650272324" y="-580859.240844641"/>

	<facility id="casaPessoa59" x="-4154907" y="-580764"/>
	<facility id="trabalho59" x="-4157507.351716816" y="-578347.238370805"/>

	<facility id="casaPessoa60" x="-4157193" y="-575332"/>
	<facility id="trabalho60" x="-4157276.4845270007" y="-580106.8485263647"/>
	<facility id="loja60" x="-4159066" y="-576223"/>

	<facility id="casaPessoa61" x="-4158785.549659761" y="-575981.2966236725"/>
	<facility id="trabalho61" x="-4157537.0659116018" y="-579807.1548183665"/>
	<facility id="loja61" x="-4162890" y="-587150"/>

	<facility id="casaPessoa62" x="-4158963.823127383" y="-576969.8166591015"/>
	<facility id="trabalho62" x="-4157069.949243334" y="-578721.2065518094"/>
	<facility id="loja62" x="-4155373.22847604" y="-581481.7385732394"/>

	<facility id="casaPessoa63" x="-4153563" y="-583125"/>
	<facility id="trabalho63" x="-4157599.5300508277" y="-579356.2990459494"/>
	<facility id="loja63" x="-4155573.35445578" y="-581823.6385855804"/>

	<facility id="casaPessoa64" x="-4158656.733295004" y="-574742.7441452253"/>
	<facility id="trabalho64" x="-4158326" y="-573460"/>

	<facility id="casaPessoa65" x="-4153244" y="-579292"/>
	<facility id="trabalho65" x="-4156593.9819476265" y="-578176.0381502523"/>
	<facility id="loja65" x="-4156247.947493203" y="-580258.0623414266"/>

	<facility id="casaPessoa66" x="-4162424" y="-587291"/>
	<facility id="trabalho66" x="-4157906.146270472" y="-579187.8926861784"/>
	<facility id="loja66" x="-4154179" y="-579985"/>

	<facility id="casaPessoa67" x="-4156917" y="-582319"/>
	<facility id="loja67" x="-4157373" y="-573586"/>

	<facility id="casaPessoa68" x="-4154556" y="-584054"/>
	<facility id="trabalho68" x="-4149789" y="-573911"/>
	<facility id="loja68" x="-4155283.753584841" y="-581300.3283862417"/>

	<facility id="casaPessoa69" x="-4159604.6015188317" y="-573975.5159563429"/>
	<facility id="trabalho69" x="-4157502.1188391023" y="-579413.7182892732"/>
	<facility id="loja69" x="-4156024" y="-575347"/>

	<facility id="casaPessoa70" x="-4161994" y="-584452"/>
	<facility id="trabalho70" x="-4150742" y="-582276"/>
	<facility id="loja70" x="-4155295.5373421493" y="-580170.7444904863"/>

	<facility id="casaPessoa71" x="-4160672" y="-579650"/>
	<facility id="trabalho71" x="-4158808" y="-572878"/>
	<facility id="loja71" x="-4152471" y="-580776"/>

	<facility id="casaPessoa72" x="-4155163" y="-570621"/>
	<facility id="trabalho72" x="-4157899" y="-575916"/>
	<facility id="loja72" x="-4156086.39992221" y="-580693.9821472295"/>

	<facility id="casaPessoa73" x="-4154734" y="-571139"/>
	<facility id="trabalho73" x="-4155979" y="-581388"/>
	<facility id="loja73" x="-4156155" y="-580821"/>

	<facility id="casaPessoa74" x="-4150994" y="-581157"/>
	<facility id="trabalho74" x="-4157700.2282486632" y="-578645.5828364801"/>
	<facility id="loja74" x="-4163840" y="-586748"/>

	<facility id="casaPessoa75" x="-4154481" y="-581462"/>
	<facility id="trabalho75" x="-4159909" y="-576695"/>

	<facility id="casaPessoa76" x="-4158575" y="-579832"/>
	<facility id="trabalho76" x="-4157490.7619149014" y="-579776.6883679901"/>

	<facility id="casaPessoa77" x="-4151500" y="-580862"/>
	<facility id="trabalho77" x="-4155016" y="-579537"/>

	<facility id="casaPessoa78" x="-4158025" y="-573800"/>
	<facility id="trabalho78" x="-4155148" y="-583415"/>
	<facility id="loja78" x="-4153536" y="-578286"/>

	<facility id="casaPessoa79" x="-4159751.367652398" y="-575483.1685457033"/>
	<facility id="loja79" x="-4155467" y="-583574"/>

	<facility id="casaPessoa80" x="-4158902.519423479" y="-574145.2708032947"/>
	<facility id="trabalho80" x="-4155039" y="-581493"/>
	<facility id="loja80" x="-4156289.2324389117" y="-580836.4835762274"/>

	<facility id="casaPessoa81" x="-4156403" y="-577787"/>
	<facility id="trabalho81" x="-4151801" y="-578485"/>
	<facility id="loja81" x="-4159978" y="-581306"/>

	<facility id="casaPessoa82" x="-4158377.0225812458" y="-576336.5190645374"/>
	<facility id="trabalho82" x="-4157131.0047811777" y="-578908.2926773436"/>
	<facility id="loja82" x="-4155333" y="-575650"/>

	<facility id="casaPessoa83" x="-4150703" y="-581951"/>
	<facility id="trabalho83" x="-4156665.733895382" y="-578796.5217991136"/>

	<facility id="casaPessoa84" x="-4158098.940961272" y="-576692.219880563"/>
	<facility id="trabalho84" x="-4157387.2975795767" y="-578415.9528827121"/>
	<facility id="loja84" x="-4156157.4670616733" y="-581516.5527125766"/>

	<facility id="casaPessoa85" x="-4158792" y="-575847"/>
	<facility id="trabalho85" x="-4162532" y="-584357"/>
	<facility id="loja85" x="-4161518" y="-572404"/>

	<facility id="casaPessoa86" x="-4160340" y="-578210"/>
	<facility id="trabalho86" x="-4152696" y="-584831"/>

	<facility id="casaPessoa87" x="-4154217" y="-583681"/>
	<facility id="trabalho87" x="-4151765" y="-581268"/>
	<facility id="loja87" x="-4159716" y="-578104"/>

	<facility id="casaPessoa88" x="-4158036.5231148987" y="-574761.5882887221"/>
	<facility id="trabalho88" x="-4151325" y="-579165"/>
	<facility id="loja88" x="-4151622" y="-579572"/>

	<facility id="casaPessoa89" x="-4158301" y="-576471"/>
	<facility id="loja89" x="-4159621" y="-574320"/>

	<facility id="casaPessoa90" x="-4160282" y="-574121"/>
	<facility id="trabalho90" x="-4157330.7985364194" y="-579569.1327986573"/>
	<facility id="loja90" x="-4152547" y="-578459"/>

	<facility id="casaPessoa91" x="-4159183.0424408074" y="-575814.055642968"/>
	<facility id="trabalho91" x="-4155232" y="-581355"/>
	<facility id="loja91" x="-4151989" y="-578183"/>

	<facility id="casaPessoa92" x="-4158214.776787959" y="-576393.6459124674"/>
	<facility id="trabalho92" x="-4154696" y="-583694"/>
	<facility id="loja92" x="-4163221" y="-586600"/>

	<facility id="casaPessoa93" x="-4157732" y="-577031"/>
	<facility id="trabalho93" x="-4159212" y="-577790"/>
	<facility id="loja93" x="-4154952.6161502483" y="-581556.2127213363"/>

	<facility id="casaPessoa94" x="-4151601" y="-580340"/>
	<facility id="trabalho94" x="-4155007" y="-582896"/>
	<facility id="loja94" x="-4159295" y="-580655"/>

	<facility id="casaPessoa95" x="-4149323" y="-579935"/>
	<facility id="trabalho95" x="-4152257" y="-577787"/>
	<facility id="loja95" x="-4158342" y="-574809"/>

	<facility id="casaPessoa96" x="-4153134" y="-578735"/>
	<facility id="trabalho96" x="-4153386" y="-578304"/>
	<facility id="loja96" x="-4156617.5982661457" y="-580967.6498815657"/>

	<facility id="casaPessoa97" x="-4159459.6855860036" y="-576874.3417782888"/>
	<facility id="trabalho97" x="-4161428" y="-578526"/>
	<facility id="loja97" x="-4154914" y="-582815"/>

	<facility id="casaPessoa98" x="-4157479" y="-577629"/>
	<facility id="trabalho98" x="-4158275" y="-574867"/>
	<facility id="loja98" x="-4157254" y="-574082"/>

	<facility id="casaPessoa99" x="-4159491.05186104" y="-576876.9640656911"/>
	<facility id="trabalho99" x="-4160300" y="-571366"/>

	<facility id="casaPessoa100" x="-4152957" y="-583995"/>
	<facility id="trabalho100" x="-4162755" y="-584094"/>
	<facility id="loja100" x="-4160130" y="-576423"/>

	<facility id="casaPessoa101" x="-4160247" y="-573082"/>
	<facility id="trabalho101" x="-4156404.6293739052" y="-578340.3370162755"/>
	<facility id="loja101" x="-4153596" y="-580407"/>

	<facility id="casaPessoa102" x="-4157027" y="-575534"/>
	<facility id="loja102" x="-4162309" y="-585316"/>

	<facility id="casaPessoa103" x="-4153417" y="-581509"/>
	<facility id="trabalho103" x="-4157830.61628966" y="-579403.0666877155"/>
	<facility id="loja103" x="-4156660.6221696073" y="-581800.7994783575"/>

	<facility id="casaPessoa104" x="-4156398" y="-578354"/>
	<facility id="trabalho104" x="-4156997" y="-575196"/>
	<facility id="loja104" x="-4156282.170553919" y="-581036.1974767819"/>

	<facility id="casaPessoa105" x="-4158411.2505778386" y="-576565.8399558252"/>
	<facility id="trabalho105" x="-4152387" y="-578069"/>
	<facility id="loja105" x="-4155727" y="-570126"/>

	<facility id="casaPessoa106" x="-4161105" y="-571959"/>
	<facility id="trabalho106" x="-4157447.2430334426" y="-579921.9612509065"/>
	<facility id="loja106" x="-4158351" y="-574822"/>

	<facility id="casaPessoa107" x="-4156199" y="-580790"/>
	<facility id="trabalho107" x="-4157586.686038757" y="-579970.0577174308"/>
	<facility id="loja107" x="-4156072.448034167" y="-581709.9527381578"/>

	<facility id="casaPessoa108" x="-4159042.566033019" y="-576165.5122323676"/>
	<facility id="trabalho108" x="-4156475.5644585923" y="-579822.0951238017"/>
	<facility id="loja108" x="-4154978.567612266" y="-582017.8098853058"/>

	<facility id="casaPessoa109" x="-4158187.148181036" y="-576915.1876183639"/>
	<facility id="loja109" x="-4151408" y="-578322"/>

	<facility id="casaPessoa110" x="-4157741.9530455316" y="-574855.3553225617"/>
	<facility id="trabalho110" x="-4157498.4195126654" y="-578091.8730428419"/>
	<facility id="loja110" x="-4159165" y="-573807"/>

	<facility id="casaPessoa111" x="-4159191.8946300843" y="-576623.5014614915"/>
	<facility id="loja111" x="-4156350.017568093" y="-580550.6653326541"/>

	<facility id="casaPessoa112" x="-4156180" y="-580960"/>
	<facility id="trabalho112" x="-4155667" y="-585511"/>
	<facility id="loja112" x="-4156277.634013423" y="-580181.2098002969"/>

	<facility id="casaPessoa113" x="-4153052" y="-579488"/>
	<facility id="trabalho113" x="-4160069" y="-577847"/>
	<facility id="loja113" x="-4154274" y="-583308"/>

	<facility id="casaPessoa114" x="-4163616" y="-584516"/>
	<facility id="trabalho114" x="-4158219" y="-583144"/>

	<facility id="casaPessoa115" x="-4159431.6498591974" y="-576308.9754915364"/>
	<facility id="trabalho115" x="-4157800.2939869883" y="-579015.7297626992"/>
	<facility id="loja115" x="-4157119" y="-578145"/>

	<facility id="casaPessoa116" x="-4154188" y="-581622"/>
	<facility id="trabalho116" x="-4157937.6106278854" y="-578907.9911345171"/>
	<facility id="loja116" x="-4154653" y="-583769"/>

	<facility id="casaPessoa117" x="-4156672" y="-576949"/>
	<facility id="loja117" x="-4161601" y="-577967"/>

	<facility id="casaPessoa118" x="-4156524" y="-583860"/>
	<facility id="trabalho118" x="-4153393" y="-584145"/>
	<facility id="loja118" x="-4160154" y="-574926"/>

	<facility id="casaPessoa119" x="-4158485.432345607" y="-576215.9055497933"/>
	<facility id="trabalho119" x="-4160540" y="-585737"/>
	<facility id="loja119" x="-4155265.200867763" y="-581920.1861791515"/>

	<facility id="casaPessoa120" x="-4155024" y="-582122"/>
	<facility id="trabalho120" x="-4154327" y="-583586"/>
	<facility id="loja120" x="-4157765" y="-575959"/>

	<facility id="casaPessoa121" x="-4159300.0677631623" y="-575072.4408229941"/>
	<facility id="trabalho121" x="-4153909" y="-580042"/>
	<facility id="loja121" x="-4155272.7962408955" y="-580637.1557761788"/>

	<facility id="casaPessoa122" x="-4158350" y="-579162"/>
	<facility id="trabalho122" x="-4162096" y="-584365"/>
	<facility id="loja122" x="-4154358" y="-579473"/>

	<facility id="casaPessoa123" x="-4155338" y="-582734"/>
	<facility id="trabalho123" x="-4155950" y="-582725"/>
	<facility id="loja123" x="-4160931" y="-577122"/>

	<facility id="casaPessoa124" x="-4153159" y="-583758"/>
	<facility id="trabalho124" x="-4155029" y="-580037"/>
	<facility id="loja124" x="-4155521.341758227" y="-580762.9885874611"/>

	<facility id="casaPessoa125" x="-4158460" y="-584844"/>
	<facility id="trabalho125" x="-4163231" y="-583923"/>

	<facility id="casaPessoa126" x="-4157849" y="-574703"/>
	<facility id="trabalho126" x="-4158734" y="-574080"/>
	<facility id="loja126" x="-4158715" y="-576852"/>

	<facility id="casaPessoa127" x="-4162441" y="-584338"/>
	<facility id="trabalho127" x="-4161416" y="-578801"/>
	<facility id="loja127" x="-4157069" y="-577058"/>

	<facility id="casaPessoa128" x="-4158341.251571271" y="-574002.6889314273"/>
	<facility id="loja128" x="-4158740" y="-580521"/>

	<facility id="casaPessoa129" x="-4160987" y="-572837"/>
	<facility id="trabalho129" x="-4162033" y="-585040"/>

	<facility id="casaPessoa130" x="-4158048.2345232177" y="-575742.0998596739"/>
	<facility id="trabalho130" x="-4151168" y="-579495"/>
	<facility id="loja130" x="-4155331.9774094597" y="-580451.1126832155"/>

	<facility id="casaPessoa131" x="-4158197.3884768593" y="-574744.3481713873"/>
	<facility id="trabalho131" x="-4157407" y="-577521"/>
	<facility id="loja131" x="-4155488.3046946554" y="-581523.4937756029"/>

	<facility id="casaPessoa132" x="-4158541" y="-576401"/>
	<facility id="trabalho132" x="-4160535" y="-579838"/>
	<facility id="loja132" x="-4157300" y="-582836"/>

	<facility id="casaPessoa133" x="-4158011" y="-578799"/>
	<facility id="trabalho133" x="-4151893" y="-578466"/>

	<facility id="casaPessoa134" x="-4159871.6954799844" y="-574077.7683058466"/>
	<facility id="loja134" x="-4156653.139828488" y="-580961.9827749212"/>

	<facility id="casaPessoa135" x="-4159104.210463568" y="-576054.8215118742"/>
	<facility id="trabalho135" x="-4152889" y="-580431"/>
	<facility id="loja135" x="-4162699" y="-580021"/>

	<facility id="casaPessoa136" x="-4157275" y="-578657"/>
	<facility id="trabalho136" x="-4157538.3230536124" y="-579841.2361774668"/>
	<facility id="loja136" x="-4159897" y="-575122"/>

	<facility id="casaPessoa137" x="-4160019" y="-574757"/>
	<facility id="trabalho137" x="-4157041" y="-583365"/>
	<facility id="loja137" x="-4155786.9715084694" y="-580531.1850885728"/>

	<facility id="casaPessoa138" x="-4158321.4581726864" y="-574508.7498531496"/>
	<facility id="trabalho138" x="-4151744" y="-580486"/>
	<facility id="loja138" x="-4155541.079944193" y="-580956.8331872579"/>

	<facility id="casaPessoa139" x="-4162724" y="-584977"/>
	<facility id="trabalho139" x="-4158348" y="-579603"/>
	<facility id="loja139" x="-4155405.5168036404" y="-580921.5977424853"/>

	<facility id="casaPessoa140" x="-4158463" y="-576236"/>
	<facility id="trabalho140" x="-4159238" y="-581177"/>
	<facility id="loja140" x="-4155866.5587248374" y="-580629.344853284"/>

	<facility id="casaPessoa141" x="-4158443.0784335528" y="-576626.5141032253"/>
	<facility id="loja141" x="-4156472.166198492" y="-581008.4340633275"/>

	<facility id="casaPessoa142" x="-4158468.1416348442" y="-575266.2344641743"/>
	<facility id="trabalho142" x="-4156233" y="-578723"/>
	<facility id="loja142" x="-4153258" y="-583654"/>

	<facility id="casaPessoa143" x="-4150452" y="-581362"/>
	<facility id="trabalho143" x="-4157062.5469316547" y="-579110.0121448898"/>

	<facility id="casaPessoa144" x="-4157922.961623784" y="-576891.0218612287"/>
	<facility id="trabalho144" x="-4153806" y="-580676"/>

	<facility id="casaPessoa145" x="-4156533" y="-576734"/>
	<facility id="trabalho145" x="-4156246.3794248994" y="-578410.8403304947"/>

	<facility id="casaPessoa146" x="-4162083" y="-584555"/>
	<facility id="trabalho146" x="-4157238" y="-579016"/>

	<facility id="casaPessoa147" x="-4158881" y="-584447"/>
	<facility id="trabalho147" x="-4160621" y="-572492"/>
	<facility id="loja147" x="-4154942.852872514" y="-580894.5659959133"/>

	<facility id="casaPessoa148" x="-4159739.326113513" y="-574310.4958901735"/>
	<facility id="trabalho148" x="-4161832" y="-584531"/>
	<facility id="loja148" x="-4154754" y="-580841"/>

	<facility id="casaPessoa149" x="-4158467.1019171127" y="-574522.3737362693"/>
	<facility id="loja149" x="-4153192" y="-583664"/>

	<facility id="casaPessoa150" x="-4158200" y="-578014"/>
	<facility id="trabalho150" x="-4160068" y="-578712"/>
	<facility id="loja150" x="-4159836" y="-579957"/>

	<facility id="casaPessoa151" x="-4155723" y="-580971"/>
	<facility id="loja151" x="-4156846" y="-573440"/>

	<facility id="casaPessoa152" x="-4157786.1398039856" y="-574911.8216930588"/>
	<facility id="trabalho152" x="-4160659" y="-572470"/>
	<facility id="loja152" x="-4153782" y="-583004"/>

	<facility id="casaPessoa153" x="-4159188.0516234282" y="-574280.4280616416"/>
	<facility id="trabalho153" x="-4150955" y="-579153"/>

	<facility id="casaPessoa154" x="-4153083" y="-583764"/>
	<facility id="trabalho154" x="-4151447" y="-581519"/>
	<facility id="loja154" x="-4156006.5482474836" y="-580607.9009462963"/>

	<facility id="casaPessoa155" x="-4158815.5508120265" y="-575731.0429261413"/>
	<facility id="loja155" x="-4156027.865424211" y="-581193.1090414242"/>

	<facility id="casaPessoa156" x="-4154387" y="-579796"/>
	<facility id="trabalho156" x="-4155757" y="-577685"/>
	<facility id="loja156" x="-4154089" y="-580550"/>

	<facility id="casaPessoa157" x="-4159685" y="-574278"/>
	<facility id="trabalho157" x="-4156195" y="-584059"/>
	<facility id="loja157" x="-4151101" y="-579325"/>

	<facility id="casaPessoa158" x="-4158846.3419813085" y="-576820.8639112925"/>
	<facility id="trabalho158" x="-4157415" y="-575335"/>
	<facility id="loja158" x="-4155577.5303878374" y="-580542.8040026228"/>

	<facility id="casaPessoa159" x="-4159574.749151569" y="-574340.4375731915"/>
	<facility id="trabalho159" x="-4161850" y="-578979"/>
	<facility id="loja159" x="-4155699.8200559826" y="-580619.3910830179"/>

	<facility id="casaPessoa160" x="-4157750.56749934" y="-576734.1662432519"/>
	<facility id="trabalho160" x="-4160908" y="-577200"/>
	<facility id="loja160" x="-4150985" y="-579052"/>

	<facility id="casaPessoa161" x="-4159217.862880697" y="-574718.4510447561"/>
	<facility id="trabalho161" x="-4163209" y="-586795"/>
	<facility id="loja161" x="-4159904" y="-579918"/>

	<facility id="casaPessoa162" x="-4159581" y="-576771"/>
	<facility id="trabalho162" x="-4160920" y="-577788"/>

	<facility id="casaPessoa163" x="-4158714.320610257" y="-574855.5289068312"/>
	<facility id="loja163" x="-4155038.3099684315" y="-580753.1621599272"/>

	<facility id="casaPessoa164" x="-4161601" y="-578862"/>
	<facility id="loja164" x="-4155873" y="-570159"/>

	<facility id="casaPessoa165" x="-4152465" y="-578588"/>
	<facility id="trabalho165" x="-4153646" y="-580721"/>
	<facility id="loja165" x="-4157459" y="-579041"/>

	<facility id="casaPessoa166" x="-4156584" y="-579512"/>
	<facility id="trabalho166" x="-4149560" y="-579747"/>
	<facility id="loja166" x="-4151984" y="-578702"/>

	<facility id="casaPessoa167" x="-4161344" y="-573984"/>
	<facility id="loja167" x="-4161241" y="-578084"/>

	<facility id="casaPessoa168" x="-4158302.1616598726" y="-576279.4466142253"/>
	<facility id="trabalho168" x="-4156503.529634916" y="-579834.7522802936"/>
	<facility id="loja168" x="-4155361.8611605167" y="-581489.3713541449"/>

	<facility id="casaPessoa169" x="-4159431" y="-580716"/>
	<facility id="trabalho169" x="-4154077" y="-585007"/>
	<facility id="loja169" x="-4155163.127658244" y="-581474.7117987436"/>

	<facility id="casaPessoa170" x="-4154145" y="-584013"/>
	<facility id="trabalho170" x="-4159300" y="-581148"/>
	<facility id="loja170" x="-4160043" y="-576438"/>

	<facility id="casaPessoa171" x="-4159440" y="-573384"/>
	<facility id="loja171" x="-4156194" y="-579477"/>

	<facility id="casaPessoa172" x="-4153237" y="-578100"/>
	<facility id="trabalho172" x="-4156976.519180366" y="-578248.7030303017"/>

	<facility id="casaPessoa173" x="-4159074.9599958523" y="-575748.8511078332"/>
	<facility id="trabalho173" x="-4163100" y="-584032"/>
	<facility id="loja173" x="-4161453" y="-579421"/>

	<facility id="casaPessoa174" x="-4161160" y="-578749"/>
	<facility id="trabalho174" x="-4157752.909801899" y="-579594.7341560945"/>
	<facility id="loja174" x="-4155704.7122696047" y="-581550.2595999718"/>

	<facility id="casaPessoa175" x="-4154193" y="-579601"/>
	<facility id="trabalho175" x="-4153115" y="-578531"/>
	<facility id="loja175" x="-4155502" y="-570476"/>

	<facility id="casaPessoa176" x="-4151749" y="-581114"/>
	<facility id="trabalho176" x="-4150761" y="-581079"/>
	<facility id="loja176" x="-4161841" y="-578986"/>

	<facility id="casaPessoa177" x="-4157864" y="-582862"/>
	<facility id="loja177" x="-4151241" y="-584232"/>

	<facility id="casaPessoa178" x="-4152503" y="-578190"/>
	<facility id="trabalho178" x="-4157720.8134421064" y="-579209.952094139"/>
	<facility id="loja178" x="-4155658.3028516066" y="-581968.9517126498"/>

	<facility id="casaPessoa179" x="-4154574" y="-581910"/>
	<facility id="trabalho179" x="-4153108" y="-583566"/>