<?xml version="1.0" encoding="utf-8"?>
<!DOCTYPE facilities SYSTEM "http://www.matsim.org/files/dtd/facilities_v1.dtd">

<facilities>

	<facility id="casaPessoa0" x="-4155403" y="-581027"/>
	<facility id="trabalho0" x="-4161165" y="-578669"/>

	<facility id="casaPessoa1" x="-4161292" y="-571792"/>
	<facility id="trabalho1" x="-4157778.56057781" y="-578972.6949524385"/>

	<facility id="casaPessoa2" x="-4156697" y="-581171"/>
	<facility id="trabalho2" x="-4163147" y="-586832"/>

	<facility id="casaPessoa3" x="-4159085.2653032066" y="-575782.265603139"/>
	<facility id="trabalho3" x="-4157022.9675952033" y="-578477.2399245859"/>
	<facility id="loja3" x="-4160613" y="-580308"/>

	<facility id="casaPessoa4" x="-4153270" y="-583568"/>
	<facility id="trabalho4" x="-4154501" y="-579588"/>
	<facility id="loja4" x="-4156180" y="-578139"/>

	<facility id="casaPessoa5" x="-4152220" y="-579143"/>
	<facility id="trabalho5" x="-4157588.9713435327" y="-579397.2796693617"/>
	<facility id="loja5" x="-4156553" y="-577224"/>

	<facility id="casaPessoa6" x="-4158111.351198221" y="-573930.5560309062"/>
	<facility id="trabalho6" x="-4162384" y="-587141"/>
	<facility id="loja6" x="-4162492" y="-584827"/>

	<facility id="casaPessoa7" x="-4155878" y="-570340"/>
	<facility id="trabalho7" x="-4162438" y="-575079"/>
	<facility id="loja7" x="-4154802" y="-581926"/>

	<facility id="casaPessoa8" x="-4155739" y="-576115"/>
	<facility id="trabalho8" x="-4156206.285028055" y="-579605.9978906945"/>
	<facility id="loja8" x="-4158399" y="-573688"/>

	<facility id="casaPessoa9" x="-4155051" y="-571382"/>
	<facility id="trabalho9" x="-4159171" y="-576226"/>
	<facility id="loja9" x="-4155761" y="-582662"/>

	<facility id="casaPessoa10" x="-4157406" y="-575184"/>
	<facility id="trabalho10" x="-4156346" y="-575070"/>
	<facility id="loja10" x="-4154287" y="-583025"/>

	<facility id="casaPessoa11" x="-4161363" y="-584630"/>
	<facility id="trabalho11" x="-4153935" y="-579272"/>

	<facility id="casaPessoa12" x="-4160005" y="-578438"/>
	<facility id="trabalho12" x="-4159951" y="-576751"/>
	<facility id="loja12" x="-4155561.7870483412" y="-580147.5330202798"/>

	<facility id="casaPessoa13" x="-4158300.7008648654" y="-576268.3816022116"/>
	<facility id="loja13" x="-4156020.3897046177" y="-580940.4592875136"/>

	<facility id="casaPessoa14" x="-4159248" y="-578402"/>
	<facility id="loja14" x="-4161343" y="-578514"/>

	<facility id="casaPessoa15" x="-4157215" y="-576226"/>
	<facility id="trabalho15" x="-4148992" y="-576784"/>

	<facility id="casaPessoa16" x="-4159165.7290452183" y="-574264.157911288"/>
	<facility id="trabalho16" x="-4158656" y="-579991"/>

	<facility id="casaPessoa17" x="-4159983" y="-579800"/>
	<facility id="trabalho17" x="-4163464" y="-586665"/>
	<facility id="loja17" x="-4151481" y="-579460"/>

	<facility id="casaPessoa18" x="-4162335" y="-580072"/>
	<facility id="trabalho18" x="-4158302" y="-573585"/>
	<facility id="loja18" x="-4154950" y="-580598"/>

	<facility id="casaPessoa19" x="-4159039.913373425" y="-576696.3186049028"/>
	<facility id="trabalho19" x="-4158453" y="-584505"/>
	<facility id="loja19" x="-4159784" y="-573791"/>

	<facility id="casaPessoa20" x="-4162641" y="-584935"/>
	<facility id="trabalho20" x="-4157807.371973874" y="-579804.2606910103"/>

	<facility id="casaPessoa21" x="-4158822" y="-576811"/>
	<facility id="trabalho21" x="-4160304" y="-582981"/>

	<facility id="casaPessoa22" x="-4158478" y="-582655"/>
	<facility id="trabalho22" x="-4153989" y="-578792"/>
	<facility id="loja22" x="-4156362.2706940253" y="-581090.6516576702"/>

	<facility id="casaPessoa23" x="-4159759.638519709" y="-575333.5651466713"/>
	<facility id="trabalho23" x="-4150475" y="-579072"/>

	<facility id="casaPessoa24" x="-4151013" y="-579080"/>
	<facility id="trabalho24" x="-4156507.9155331645" y="-579793.4016112186"/>
	<facility id="loja24" x="-4157400" y="-575734"/>

	<facility id="casaPessoa25" x="-4158464.3467548015" y="-576297.8787408036"/>
	<facility id="trabalho25" x="-4159247" y="-578803"/>

	<facility id="casaPessoa26" x="-4154901" y="-583323"/>
	<facility id="trabalho26" x="-4156529.3688717373" y="-578453.6177140651"/>

	<facility id="casaPessoa27" x="-4159626.557841344" y="-574677.3430783655"/>
	<facility id="trabalho27" x="-4154892" y="-574420"/>
	<facility id="loja27" x="-4159985" y="-578853"/>

	<facility id="casaPessoa28" x="-4157989" y="-574130"/>
	<facility id="trabalho28" x="-4158037" y="-574734"/>
	<facility id="loja28" x="-4157189" y="-581079"/>

	<facility id="casaPessoa29" x="-4159436.7000768776" y="-576116.4394774296"/>
	<facility id="trabalho29" x="-4159366" y="-578272"/>
	<facility id="loja29" x="-4154855" y="-580084"/>

	<facility id="casaPessoa30" x="-4158822.916132666" y="-573925.5862376111"/>
	<facility id="trabalho30" x="-4158372" y="-573958"/>
	<facility id="loja30" x="-4155828.1136787846" y="-580229.240556809"/>

	<facility id="casaPessoa31" x="-4153701" y="-579748"/>
	<facility id="trabalho31" x="-4159362" y="-574073"/>
	<facility id="loja31" x="-4155217.040690399" y="-581581.435050312"/>

	<facility id="casaPessoa32" x="-4158764" y="-578536"/>
	<facility id="loja32" x="-4155402.6483246414" y="-580351.3215993289"/>

	<facility id="casaPessoa33" x="-4151188" y="-582360"/>
	<facility id="loja33" x="-4154102" y="-579512"/>

	<facility id="casaPessoa34" x="-4158593.7252745493" y="-575419.1992841663"/>
	<facility id="trabalho34" x="-4157586.025556266" y="-579204.4005445417"/>

	<facility id="casaPessoa35" x="-4153522" y="-579907"/>
	<facility id="trabalho35" x="-4158809" y="-576929"/>

	<facility id="casaPessoa36" x="-4158122" y="-579715"/>
	<facility id="trabalho36" x="-4156209.78555874" y="-578142.5032254199"/>
	<facility id="loja36" x="-4157120" y="-577043"/>

	<facility id="casaPessoa37" x="-4153109" y="-579540"/>
	<facility id="trabalho37" x="-4154821" y="-583832"/>

	<facility id="casaPessoa38" x="-4158798" y="-580946"/>
	<facility id="loja38" x="-4155709.221049748" y="-581131.3397811855"/>

	<facility id="casaPessoa39" x="-4161448" y="-578980"/>
	<facility id="trabalho39" x="-4162738" y="-586985"/>
	<facility id="loja39" x="-4155635.9017769643" y="-581012.642211369"/>

	<facility id="casaPessoa40" x="-4157805" y="-576898"/>
	<facility id="trabalho40" x="-4156773" y="-576017"/>
	<facility id="loja40" x="-4150266" y="-574681"/>

	<facility id="casaPessoa41" x="-4150645" y="-582743"/>
	<facility id="trabalho41" x="-4157688.044443382" y="-578746.2040724878"/>
	<facility id="loja41" x="-4156244.248099256" y="-580816.2856667605"/>

	<facility id="casaPessoa42" x="-4158781.470123788" y="-576055.7131503605"/>
	<facility id="trabalho42" x="-4160099" y="-578274"/>
	<facility id="loja42" x="-4156536" y="-579531"/>

	<facility id="casaPessoa43" x="-4160841" y="-579843"/>
	<facility id="trabalho43" x="-4158020" y="-582472"/>

	<facility id="casaPessoa44" x="-4155655" y="-584376"/>
	<facility id="trabalho44" x="-4154817" y="-584825"/>

	<facility id="casaPessoa45" x="-4150428" y="-581496"/>
	<facility id="trabalho45" x="-4159363" y="-574811"/>
	<facility id="loja45" x="-4156224.2759983577" y="-580266.81699975"/>

	<facility id="casaPessoa46" x="-4158777.0198012646" y="-576130.6067121082"/>
	<facility id="trabalho46" x="-4151914" y="-578139"/>
	<facility id="loja46" x="-4155732" y="-582163"/>

	<facility id="casaPessoa47" x="-4159167.7535136174" y="-574006.1079276734"/>
	<facility id="trabalho47" x="-4157587.479013475" y="-578521.632008774"/>
	<facility id="loja47" x="-4155476.7273886083" y="-580469.4998314962"/>

	<facility id="casaPessoa48" x="-4157733.513082185" y="-576945.2119313534"/>
	<facility id="trabalho48" x="-4154917" y="-575705"/>

	<facility id="casaPessoa49" x="-4149512" y="-579712"/>
	<facility id="trabalho49" x="-4153176" y="-578735"/>

	<facility id="casaPessoa50" x="-4158683.292002341" y="-574134.6949364926"/>
	<facility id="trabalho50" x="-4157369.022324586" y="-578824.2659605892"/>

	<facility id="casaPessoa51" x="-4153369" y="-584822"/>
	<facility id="trabalho51" x="-4157626.7998606046" y="-579329.8513221984"/>

	<facility id="casaPessoa52" x="-4156621" y="-581592"/>
	<facility id="trabalho52" x="-4159146" y="-572708"/>
	<facility id="loja52" x="-4155499" y="-576662"/>

	<facility id="casaPessoa53" x="-4157951.0569278183" y="-574642.7089642135"/>
	<facility id="trabalho53" x="-4156916.3375660274" y="-578136.1138339227"/>

	<facility id="casaPessoa54" x="-4153230" y="-584678"/>
	<facility id="trabalho54" x="-4156109.655795138" y="-579726.9557747594"/>

	<facility id="casaPessoa55" x="-4153872" y="-580169"/>
	<facility id="trabalho55" x="-4155279" y="-575593"/>
	<facility id="loja55" x="-4153842" y="-582858"/>

	<facility id="casaPessoa56" x="-4158494.860152187" y="-576246.7211867045"/>
	<facility id="trabalho56" x="-4159512" y="-572985"/>
	<facility id="loja56" x="-4155530.4614400733" y="-580988.9502158414"/>

	<facility id="casaPessoa57" x="-4155984" y="-581009"/>
	<facility id="trabalho57" x="-4159050" y="-573408"/>
	<facility id="loja57" x="-4160653" y="-579483"/>

	<facility id="casaPessoa58" x="-4159016.7537319874" y="-576312.0827482392"/>
	<facility id="trabalho58" x="-4159346" y="-581156"/>

	<facility id="casaPessoa59" x="-4158023.0662506996" y="-576603.0660493982"/>
	<facility id="trabalho59" x="-4149627" y="-577802"/>

	<facility id="casaPessoa60" x="-4158315.1684310953" y="-574901.400750735"/>
	<facility id="trabalho60" x="-4159712" y="-574122"/>
	<facility id="loja60" x="-4160584" y="-576467"/>

	<facility id="casaPessoa61" x="-4159458.107521011" y="-576021.5360042993"/>
	<facility id="trabalho61" x="-4150806" y="-578720"/>
	<facility id="loja61" x="-4162668" y="-587177"/>

	<facility id="casaPessoa62" x="-4158274.3818052947" y="-575611.568020793"/>
	<facility id="trabalho62" x="-4157173.5414377037" y="-578932.3479440031"/>

	<facility id="casaPessoa63" x="-4158583" y="-576176"/>
	<facility id="trabalho63" x="-4157631.921784752" y="-579423.1077687796"/>

	<facility id="casaPessoa64" x="-4161391" y="-572440"/>
	<facility id="trabalho64" x="-4154515" y="-584992"/>

	<facility id="casaPessoa65" x="-4158282" y="-579938"/>
	<facility id="loja65" x="-4151981" y="-578189"/>

	<facility id="casaPessoa66" x="-4154685" y="-583452"/>
	<facility id="trabalho66" x="-4161394" y="-578868"/>
	<facility id="loja66" x="-4156381.2673765244" y="-581083.5588380647"/>

	<facility id="casaPessoa67" x="-4158398.310949918" y="-575100.1946598"/>
	<facility id="trabalho67" x="-4158905" y="-578217"/>
	<facility id="loja67" x="-4156457.111983984" y="-580271.4414466651"/>

	<facility id="casaPessoa68" x="-4159571.754856005" y="-576345.5470173312"/>
	<facility id="trabalho68" x="-4150427" y="-580186"/>
	<facility id="loja68" x="-4159956" y="-579936"/>

	<facility id="casaPessoa69" x="-4156424" y="-579775"/>
	<facility id="trabalho69" x="-4154637" y="-570890"/>
	<facility id="loja69" x="-4159982" y="-578102"/>

	<facility id="casaPessoa70" x="-4160674" y="-579264"/>
	<facility id="trabalho70" x="-4157458" y="-579049"/>

	<facility id="casaPessoa71" x="-4153276" y="-584209"/>
	<facility id="trabalho71" x="-4157940.3898227476" y="-579987.7191348744"/>
	<facility id="loja71" x="-4161070" y="-578919"/>

	<facility id="casaPessoa72" x="-4153288" y="-580443"/>
	<facility id="trabalho72" x="-4156796" y="-577891"/>
	<facility id="loja72" x="-4155702.451859948" y="-580399.7432264592"/>

	<facility id="casaPessoa73" x="-4157105" y="-581628"/>
	<facility id="trabalho73" x="-4160233" y="-571367"/>
	<facility id="loja73" x="-4159516" y="-575893"/>

	<facility id="casaPessoa74" x="-4156417" y="-581106"/>
	<facility id="trabalho74" x="-4157780.7977265175" y="-579816.9029280237"/>
	<facility id="loja74" x="-4154601" y="-582610"/>

	<facility id="casaPessoa75" x="-4156648" y="-576228"/>
	<facility id="trabalho75" x="-4158555" y="-579355"/>
	<facility id="loja75" x="-4163327" y="-584372"/>

	<facility id="casaPessoa76" x="-4152612" y="-575197"/>
	<facility id="loja76" x="-4160256" y="-580006"/>

	<facility id="casaPessoa77" x="-4158458.126171977" y="-576859.0327335418"/>
	<facility id="trabalho77" x="-4160685" y="-579279"/>
	<facility id="loja77" x="-4149097" y="-576692"/>

	<facility id="casaPessoa78" x="-4159454.855515332" y="-576007.4261214167"/>
	<facility id="loja78" x="-4153100" y="-579538"/>

	<facility id="casaPessoa79" x="-4161410" y="-578480"/>
	<facility id="trabalho79" x="-4153158" y="-578234"/>

	<facility id="casaPessoa80" x="-4158174" y="-580509"/>
	<facility id="trabalho80" x="-4156931.7086095093" y="-579092.7145819644"/>
	<facility id="loja80" x="-4155695.035304642" y="-581045.9569114093"/>

	<facility id="casaPessoa81" x="-4159005.080034325" y="-574626.8764496763"/>
	<facility id="trabalho81" x="-4156149" y="-582698"/>
	<facility id="loja81" x="-4154070" y="-583010"/>

	<facility id="casaPessoa82" x="-4154801" y="-571108"/>
	<facility id="trabalho82" x="-4158134" y="-577876"/>

	<facility id="casaPessoa83" x="-4152698" y="-584633"/>
	<facility id="trabalho83" x="-4162600" y="-584365"/>
	<facility id="loja83" x="-4156665.066100946" y="-581935.3935192339"/>

	<facility id="casaPessoa84" x="-4158007.130271875" y="-575112.975237265"/>
	<facility id="trabalho84" x="-4157463.0535481507" y="-579771.9238810827"/>
	<facility id="loja84" x="-4153788" y="-580647"/>

	<facility id="casaPessoa85" x="-4153261" y="-583850"/>
	<facility id="trabalho85" x="-4158113" y="-580318"/>
	<facility id="loja85" x="-4152211" y="-579010"/>

	<facility id="casaPessoa86" x="-4158833.366130231" y="-574341.1783057973"/>
	<facility id="trabalho86" x="-4157514.1648250963" y="-579598.8502041585"/>
	<facility id="loja86" x="-4155020" y="-576500"/>

	<facility id="casaPessoa87" x="-4157545" y="-577056"/>
	<facility id="trabalho87" x="-4156018" y="-577032"/>

	<facility id="casaPessoa88" x="-4158688.390459848" y="-576439.3306190642"/>
	<facility id="loja88" x="-4157530" y="-576482"/>

	<facility id="casaPessoa89" x="-4152569" y="-584683"/>
	<facility id="trabalho89" x="-4156274" y="-579741"/>
	<facility id="loja89" x="-4156673.4923991323" y="-581473.708489309"/>

	<facility id="casaPessoa90" x="-4153152" y="-578182"/>
	<facility id="loja90" x="-4158012" y="-577508"/>

	<facility id="casaPessoa91" x="-4150165" y="-581710"/>
	<facility id="trabalho91" x="-4156737.2049571476" y="-579271.713528795"/>
	<facility id="loja91" x="-4161334" y="-585281"/>

	<facility id="casaPessoa92" x="-4159148.1357787983" y="-576306.8681453175"/>
	<facility id="trabalho92" x="-4156905" y="-578791"/>
	<facility id="loja92" x="-4152187" y="-580083"/>

	<facility id="casaPessoa93" x="-4157916.693232307" y="-576941.4874257431"/>
	<facility id="trabalho93" x="-4157731" y="-579642"/>

	<facility id="casaPessoa94" x="-4150967" y="-578346"/>
	<facility id="trabalho94" x="-4156020" y="-575583"/>
	<facility id="loja94" x="-4155923.386333426" y="-580827.8806451891"/>

	<facility id="casaPessoa95" x="-4155448" y="-581329"/>
	<facility id="trabalho95" x="-4157224.2320675943" y="-578358.3909725525"/>
	<facility id="loja95" x="-4159822" y="-577533"/>

	<facility id="casaPessoa96" x="-4152097" y="-580305"/>
	<facility id="trabalho96" x="-4157889" y="-578307"/>
	<facility id="loja96" x="-4159292" y="-575127"/>

	<facility id="casaPessoa97" x="-4161043" y="-579213"/>
	<facility id="trabalho97" x="-4156248.6140700425" y="-578588.714688963"/>
	<facility id="loja97" x="-4163798" y="-586420"/>

	<facility id="casaPessoa98" x="-4161004" y="-575945"/>
	<facility id="trabalho98" x="-4160350" y="-574771"/>
	<facility id="loja98" x="-4153048" y="-579805"/>

	<facility id="casaPessoa99" x="-4150540" y="-581454"/>
	<facility id="trabalho99" x="-4155654" y="-580920"/>
	<facility id="loja99" x="-4157364" y="-576186"/>

	<facility id="casaPessoa100" x="-4160781" y="-579613"/>
	<facility id="trabalho100" x="-4160370" y="-579863"/>
	<facility id="loja100" x="-4162534" y="-584921"/>

	<facility id="casaPessoa101" x="-4155511" y="-571103"/>
	<facility id="trabalho101" x="-4155318" y="-584074"/>
	<facility id="loja101" x="-4157931" y="-578845"/>

	<facility id="casaPessoa102" x="-4151103" y="-578988"/>
	<facility id="trabalho102" x="-4157577.340941918" y="-579447.7529902783"/>
	<facility id="loja102" x="-4157907" y="-573335"/>

	<facility id="casaPessoa103" x="-4159690.7756625884" y="-575486.8998204506"/>
	<facility id="loja103" x="-4156604" y="-575352"/>

	<facility id="casaPessoa104" x="-4152201" y="-580207"/>
	<facility id="trabalho104" x="-4159262" y="-577575"/>

	<facility id="casaPessoa105" x="-4151198" y="-584303"/>
	<facility id="trabalho105" x="-4154391" y="-585027"/>
	<facility id="loja105" x="-4158329" y="-575033"/>

	<facility id="casaPessoa106" x="-4157893.7804489634" y="-575884.9313961992"/>
	<facility id="trabalho106" x="-4158170" y="-573589"/>
	<facility id="loja106" x="-4156749" y="-573606"/>

	<facility id="casaPessoa107" x="-4158990.960588666" y="-574063.5635688308"/>
	<facility id="trabalho107" x="-4151249" y="-579377"/>
	<facility id="loja107" x="-4155699.024364716" y="-580463.2669501102"/>

	<facility id="casaPessoa108" x="-4157669" y="-578864"/>
	<facility id="trabalho108" x="-4163819" y="-586561"/>
	<facility id="loja108" x="-4156290.109198339" y="-580635.153309609"/>

	<facility id="casaPessoa109" x="-4159313.215329684" y="-574307.1392427668"/>
	<facility id="trabalho109" x="-4160248" y="-577963"/>
	<facility id="loja109" x="-4156534.900846769" y="-580827.4474121127"/>

	<facility id="casaPessoa110" x="-4152586" y="-580000"/>
	<facility id="trabalho110" x="-4149258" y="-579243"/>
	<facility id="loja110" x="-4161383" y="-572275"/>

	<facility id="casaPessoa111" x="-4159631" y="-572842"/>
	<facility id="trabalho111" x="-4157421.6731558596" y="-579311.1251973221"/>
	<facility id="loja111" x="-4156642.7267523175" y="-581666.9720711901"/>

	<facility id="casaPessoa112" x="-4155921" y="-572351"/>
	<facility id="trabalho112" x="-4153215" y="-580129"/>
	<facility id="loja112" x="-4161626" y="-584527"/>

	<facility id="casaPessoa113" x="-4158527.792200528" y="-576520.2606187381"/>
	<facility id="trabalho113" x="-4152574" y="-579726"/>
	<facility id="loja113" x="-4161585" y="-584768"/>

	<facility id="casaPessoa114" x="-4157218" y="-575550"/>
	<facility id="trabalho114" x="-4151921" y="-578887"/>
	<facility id="loja114" x="-4156440.0393825" y="-580629.7317480762"/>

	<facility id="casaPessoa115" x="-4159680.344652868" y="-574520.5517522496"/>
	<facility id="trabalho115" x="-4157795.7725228667" y="-578912.0188726832"/>

	<facility id="casaPessoa116" x="-4153227" y="-584771"/>
	<facility id="trabalho116" x="-4159816" y="-577100"/>
	<facility id="loja116" x="-4158165" y="-574505"/>

	<facility id="casaPessoa117" x="-4161541" y="-585587"/>
	<facility id="trabalho117" x="-4153488" y="-585418"/>

	<facility id="casaPessoa118" x="-4159247.678714433" y="-576387.4596786179"/>
	<facility id="trabalho118" x="-4157764.4824259398" y="-578447.5271341637"/>
	<facility id="loja118" x="-4156141.5319328345" y="-580495.6157359721"/>

	<facility id="casaPessoa119" x="-4156216" y="-572191"/>
	<facility id="trabalho119" x="-4154701" y="-584401"/>
	<facility id="loja119" x="-4154833" y="-582748"/>

	<facility id="casaPessoa120" x="-4153671" y="-583374"/>
	<facility id="trabalho120" x="-4156949.899318035" y="-578843.0579193431"/>
	<facility id="loja120" x="-4161197" y="-578784"/>

	<facility id="casaPessoa121" x="-4158876.7060541147" y="-575755.5325649494"/>
	<facility id="trabalho121" x="-4153350" y="-579964"/>

	<facility id="casaPessoa122" x="-4160973" y="-578449"/>
	<facility id="loja122" x="-4161668" y="-577804"/>

	<facility id="casaPessoa123" x="-4156918" y="-573453"/>
	<facility id="trabalho123" x="-4162335" y="-577855"/>
	<facility id="loja123" x="-4157093" y="-573097"/>

	<facility id="casaPessoa124" x="-4162438" y="-575085"/>
	<facility id="trabalho124" x="-4157893.389999518" y="-578836.6032528274"/>
	<facility id="loja124" x="-4155941.110957651" y="-580205.4867261766"/>

	<facility id="casaPessoa125" x="-4159569.9383927947" y="-576699.5912002582"/>
	<facility id="trabalho125" x="-4150665" y="-578896"/>
	<facility id="loja125" x="-4155202.9767674054" y="-581094.0991448346"/>

	<facility id="casaPessoa126" x="-4159784.116210909" y="-574060.8895315203"/>
	<facility id="trabalho126" x="-4159984" y="-580022"/>
	<facility id="loja126" x="-4156547" y="-576214"/>

	<facility id="casaPessoa127" x="-4153425" y="-585303"/>
	<facility id="trabalho127" x="-4156781" y="-583206"/>

	<facility id="casaPessoa128" x="-4153756" y="-579919"/>
	<facility id="loja128" x="-4157855" y="-573555"/>

	<facility id="casaPessoa129" x="-4156042" y="-575319"/>
	<facility id="trabalho129" x="-4157469.0799226314" y="-578286.7815453633"/>

	<facility id="casaPessoa130" x="-4159198.8137784763" y="-573926.1657084668"/>
	<facility id="trabalho130" x="-4159874" y="-579815"/>
	<facility id="loja130" x="-4156683.7127275723" y="-581432.6474113404"/>

	<facility id="casaPessoa131" x="-4157728" y="-576731"/>
	<facility id="trabalho131" x="-4157468" y="-578300"/>

	<facility id="casaPessoa132" x="-4157730.254026609" y="-576728.3276078576"/>
	<facility id="trabalho132" x="-4156928.030654706" y="-578760.0556317492"/>
	<facility id="loja132" x="-4156377.9949172367" y="-581474.1874738924"/>

	<facility id="casaPessoa133" x="-4159291.8437841195" y="-575135.1153169582"/>
	<facility id="trabalho133" x="-4157814.307560163" y="-578831.1753313056"/>

	<facility id="casaPessoa134" x="-4159483.9950442393" y="-575992.8661013776"/>
	<facility id="trabalho134" x="-4158385" y="-572972"/>
	<facility id="loja134" x="-4155336" y="-581720"/>

	<facility id="casaPessoa135" x="-4155817" y="-580013"/>
	<facility id="trabalho135" x="-4161033" y="-572880"/>
	<facility id="loja135" x="-4151709" y="-578809"/>

	<facility id="casaPessoa136" x="-4151835" y="-578727"/>
	<facility id="loja136" x="-4154922" y="-582300"/>

	<facility id="casaPessoa137" x="-4158133.576659093" y="-575879.1246407581"/>
	<facility id="loja137" x="-4155330.57799527" y="-581694.6700822391"/>

	<facility id="casaPessoa138" x="-4163720" y="-586711"/>
	<facility id="trabalho138" x="-4150982" y="-578995"/>

	<facility id="casaPessoa139" x="-4159668" y="-574380"/>
	<facility id="trabalho139" x="-4161043" y="-578722"/>
	<facility id="loja139" x="-4155898.7370376023" y="-581320.3133449607"/>

	<facility id="casaPessoa140" x="-4163180" y="-584852"/>
	<facility id="trabalho140" x="-4153248" y="-583929"/>
	<facility id="loja140" x="-4156140.7376947985" y="-580564.9789341596"/>

	<facility id="casaPessoa141" x="-4151717" y="-580588"/>
	<facility id="trabalho141" x="-4155882" y="-584242"/>
	<facility id="loja141" x="-4158707" y="-573148"/>

	<facility id="casaPessoa142" x="-4159179.5602235133" y="-574327.603072135"/>
	<facility id="trabalho142" x="-4157367.837509802" y="-579829.1408853271"/>
	<facility id="loja142" x="-4158304" y="-574824"/>

	<facility id="casaPessoa143" x="-4158026.789888492" y="-574576.1406723389"/>
	<facility id="trabalho143" x="-4162064" y="-584484"/>
	<facility id="loja143" x="-4156169.637792572" y="-580887.3443612752"/>

	<facility id="casaPessoa144" x="-4159527" y="-576432"/>
	<facility id="trabalho144" x="-4156752" y="-577087"/>
	<facility id="loja144" x="-4155393.1479101437" y="-581333.7247228745"/>

	<facility id="casaPessoa145" x="-4153645" y="-580025"/>
	<facility id="trabalho145" x="-4161629" y="-585504"/>
	<facility id="loja145" x="-4155227" y="-570813"/>

	<facility id="casaPessoa146" x="-4156765" y="-581531"/>
	<facility id="trabalho146" x="-4156878.064370133" y="-578595.6207090834"/>
	<facility id="loja146" x="-4151191" y="-578212"/>

	<facility id="casaPessoa147" x="-4158720.9599945634" y="-574821.2639862988"/>
	<facility id="trabalho147" x="-4157516.6279934477" y="-579955.5609962874"/>
	<facility id="loja147" x="-4157217" y="-581625"/>

	<facility id="casaPessoa148" x="-4159827" y="-578106"/>
	<facility id="trabalho148" x="-4153319" y="-584145"/>

	<facility id="casaPessoa149" x="-4152892" y="-584416"/>
	<facility id="trabalho149" x="-4155460" y="-570615"/>
	<facility id="loja149" x="-4152406" y="-579996"/>

	<facility id="casaPessoa150" x="-4160918" y="-572747"/>
	<facility id="loja150" x="-4155677.8436368513" y="-581869.3859569792"/>

	<facility id="casaPessoa151" x="-4158388.157639923" y="-576568.6049497237"/>
	<facility id="trabalho151" x="-4156547" y="-581693"/>

	<facility id="casaPessoa152" x="-4157740.8134400216" y="-576954.5594474956"/>
	<facility id="trabalho152" x="-4159386" y="-575917"/>

	<facility id="casaPessoa153" x="-4163329" y="-586756"/>
	<facility id="trabalho153" x="-4161415" y="-571844"/>
	<facility id="loja153" x="-4154585" y="-579641"/>

	<facility id="casaPessoa154" x="-4158980.2954864935" y="-575591.6904172038"/>
	<facility id="loja154" x="-4155303.2005809564" y="-581886.1011289074"/>

	<facility id="casaPessoa155" x="-4158408.0680795363" y="-574540.7575149935"/>
	<facility id="trabalho155" x="-4156819" y="-577071"/>
	<facility id="loja155" x="-4161666" y="-578870"/>

	<facility id="casaPessoa156" x="-4162583" y="-584218"/>
	<facility id="trabalho156" x="-4156368.959268475" y="-580076.5850887469"/>
	<facility id="loja156" x="-4158446" y="-575619"/>

	<facility id="casaPessoa157" x="-4158771.10826399" y="-574716.7510354489"/>
	<facility id="trabalho157" x="-4152396" y="-577787"/>
	<facility id="loja157" x="-4152287" y="-580020"/>

	<facility id="casaPessoa158" x="-4156669" y="-583497"/>
	<facility id="trabalho158" x="-4160215" y="-574422"/>

	<facility id="casaPessoa159" x="-4152260" y="-580052"/>
	<facility id="trabalho159" x="-4157395.713761597" y="-578664.2331084996"/>
	<facility id="loja159" x="-4155454.7071212945" y="-581752.2917241764"/>

	<facility id="casaPessoa160" x="-4159134.7268201527" y="-574091.4333748152"/>
	<facility id="trabalho160" x="-4161565" y="-578881"/>
	<facility id="loja160" x="-4156169" y="-572474"/>

	<facility id="casaPessoa161" x="-4151224" y="-582399"/>
	<facility id="trabalho161" x="-4149931" y="-574087"/>
	<facility id="loja161" x="-4160730" y="-577048"/>

	<facility id="casaPessoa162" x="-4154717" y="-579617"/>
	<facility id="trabalho162" x="-4157914.9630521243" y="-579297.260578503"/>
	<facility id="loja162" x="-4156638.267905878" y="-581605.0501633612"/>

	<facility id="casaPessoa163" x="-4152722" y="-582058"/>
	<facility id="loja163" x="-4154063" y="-579071"/>

	<facility id="casaPessoa164" x="-4158886.203725174" y="-576301.6737341344"/>
	<facility id="trabalho164" x="-4150005" y="-579360"/>
	<facility id="loja164" x="-4156133.2581845084" y="-581682.8442232386"/>

	<facility id="casaPessoa165" x="-4153045" y="-581128"/>
	<facility id="trabalho165" x="-4154017" y="-583245"/>

	<facility id="casaPessoa166" x="-4159156.2819523322" y="-574070.4430298655"/>
	<facility id="trabalho166" x="-4159950" y="-576785"/>

	<facility id="casaPessoa167" x="-4157053" y="-583399"/>
	<facility id="trabalho167" x="-4155699" y="-580531"/>
	<facility id="loja167" x="-4155111.8342523235" y="-581450.2142179053"/>

	<facility id="casaPessoa168" x="-4159105.42239228" y="-574026.9894933542"/>
	<facility id="trabalho168" x="-4154135" y="-582995"/>

	<facility id="casaPessoa169" x="-4159819.596885543" y="-575399.8299614044"/>
	<facility id="trabalho169" x="-4159515" y="-576664"/>

	<facility id="casaPessoa170" x="-4155488" y="-581048"/>
	<facility id="trabalho170" x="-4158673" y="-579993"/>
	<facility id="loja170" x="-4163370" y="-586751"/>

	<facility id="casaPessoa171" x="-4157835.3137662266" y="-576700.5603525459"/>
	<facility id="trabalho171" x="-4157906.176288072" y="-578612.1786394302"/>
	<facility id="loja171" x="-4155536.4730982655" y="-581691.0312057941"/>

	<facility id="casaPessoa172" x="-4162720" y="-579959"/>
	<facility id="trabalho172" x="-4153158" y="-578713"/>

	<facility id="casaPessoa173" x="-4159055" y="-576111"/>
	<facility id="trabalho173" x="-4156739.7972779837" y="-578252.2915667384"/>
	<facility id="loja173" x="-4157781" y="-576377"/>

	<facility id="casaPessoa174" x="-4154744" y="-584822"/>
	<facility id="trabalho174" x="-4156807.870941918" y="-579167.5404709566"/>

	<facility id="casaPessoa175" x="-4156683" y="-578372"/>
	<facility id="trabalho175" x="-4157323" y="-576940"/>

	<facility id="casaPessoa176" x="-4159169.4602537155" y="-574635.9314248646"/>
	<facility id="trabalho176" x="-4156355.100874318" y="-579401.0990269089"/>

	<facility id="casaPessoa177" x="-4159754" y="-577988"/>
	<facility id="trabalho177" x="-4156561.6819841578" y="-579412.1347211102"/>
	<facility id="loja177" x="-4156291" y="-575410"/>

	<facility id="casaPessoa178" x="-4163691" y="-584576"/>
	<facility id="trabalho178" x="-4157195" y="-575623"/>

	<facility id="casaPessoa179" x="-4157258" y="-577685"/>
	<facility id="loja179" x="-4156346.1824806063" y="-581202.8830082468"/>

	<facility id="casaPessoa180" x="-4159155.0122089465" y="-576268.9945641963"/>
	<facility id="trabalho180" x="-4156933.0511303563" y="-578918.9355838295"/>
	<facility id="loja180" x="-4157556" y="-576344"/>

	<facility id="casaPessoa181" x="-4158233" y="-579163"/>
	<facility id="trabalho181" x="-4149991" y="-579303"/>
	<facility id="loja181" x="-4153151" y="-579423"/>

	<facility id="casaPessoa182" x="-4159278.0309741753" y="-574531.5822898339"/>
	<facility id="trabalho182" x="-4150498" y="-582146"/>

	<facility id="casaPessoa183" x="-4150277" y="-578933"/>
	<facility id="trabalho183" x="-4159454" y="-572692"/>

	<facility id="casaPessoa184" x="-4161447" y="-579388"/>
	<facility id="trabalho184" x="-4162939" y="-584691"/>
	<facility id="loja184" x="-4155495.5138931945" y="-580637.7384531999"/>

	<facility id="casaPessoa185" x="-4158026.138592369" y="-573986.393842776"/>
	<facility id="loja185" x="-4156995" y="-575478"/>

	<facility id="casaPessoa186" x="-4159658.895480253" y="-574564.0067733898"/>
	<facility id="trabalho186" x="-4157133.0568569466" y="-579254.7672631037"/>
	<facility id="loja186" x="-4156013.774581264" y="-581227.9945460891"/>

	<facility id="casaPessoa187" x="-4159834" y="-576821"/>