<?xml version="1.0" encoding="utf-8"?>
<!DOCTYPE plans SYSTEM "http://www.matsim.org/files/dtd/plans_v4.dtd">

<plans>

	<person id="pessoa0">
		<plan>
			<act end_time="06:59:06" x="-4155403" y="-581027" type="home"/>
			<leg mode="pt"/>
			<act end_time="12:59:06" x="-4161165" y="-578669" type="work"/>
			<leg mode="pt"/>
			<act x="-4155403" y="-581027" type="home"/>
		</plan>
	</person>

	<person id="pessoa1">
		<plan>
			<act end_time="06:25:42" x="-4157778.56057781" y="-578972.6949524385" type="work"/>
			<leg mode="pt"/>
			<act x="-4161292" y="-571792" type="home"/>
			<act end_time="22:25:42" x="-4161292" y="-571792" type="home"/>
			<leg mode="pt"/>
			<act x="-4157778.56057781" y="-578972.6949524385" type="work"/>
		</plan>
	</person>

	<person id="pessoa2">
		<plan>
			<act end_time="06:07:38" x="-4163147" y="-586832" type="work"/>
			<leg mode="pt"/>
			<act x="-4156697" y="-581171" type="home"/>
			<act end_time="20:07:38" x="-4156697" y="-581171" type="home"/>
			<leg mode="pt"/>
			<act x="-4163147" y="-586832" type="work"/>
		</plan>
	</person>

	<person id="pessoa3">
		<plan>
			<act end_time="11:27:06" x="-4159085.2653032066" y="-575782.265603139" type="home"/>
			<leg mode="pt"/>
			<act end_time="19:27:06" x="-4157022.9675952033" y="-578477.2399245859" type="work"/>
			<leg mode="pt"/>
			<act x="-4159085.2653032066" y="-575782.265603139" type="home"/>
		</plan>
	</person>

	<person id="pessoa4">
		<plan>
			<act end_time="06:27:07" x="-4154501" y="-579588" type="work"/>
			<leg mode="pt"/>
			<act x="-4153270" y="-583568" type="home"/>
			<act end_time="18:27:07" x="-4153270" y="-583568" type="home"/>
			<leg mode="pt"/>
			<act x="-4154501" y="-579588" type="work"/>
		</plan>
	</person>

	<person id="pessoa5">
		<plan>
			<act end_time="04:29:04" x="-4157588.9713435327" y="-579397.2796693617" type="work"/>
			<leg mode="pt"/>
			<act x="-4152220" y="-579143" type="home"/>
			<act end_time="17:29:04" x="-4152220" y="-579143" type="home"/>
			<leg mode="pt"/>
			<act x="-4157588.9713435327" y="-579397.2796693617" type="work"/>
		</plan>
	</person>

	<person id="pessoa6">
		<plan>
			<act end_time="12:00:16" x="-4158111.351198221" y="-573930.5560309062" type="home"/>
			<leg mode="pt"/>
			<act end_time="21:00:16" x="-4162492" y="-584827" type="shop"/>
			<leg mode="pt"/>
			<act x="-4158111.351198221" y="-573930.5560309062" type="home"/>
		</plan>
	</person>

	<person id="pessoa7">
		<plan>
			<act end_time="13:14:13" x="-4155878" y="-570340" type="home"/>
			<leg mode="pt"/>
			<act end_time="21:14:13" x="-4162438" y="-575079" type="work"/>
			<leg mode="pt"/>
			<act x="-4155878" y="-570340" type="home"/>
		</plan>
	</person>

	<person id="pessoa8">
		<plan>
			<act end_time="04:50:45" x="-4155739" y="-576115" type="home"/>
			<leg mode="pt"/>
			<act end_time="20:50:45" x="-4156206.285028055" y="-579605.9978906945" type="work"/>
			<leg mode="pt"/>
			<act x="-4155739" y="-576115" type="home"/>
		</plan>
	</person>

	<person id="pessoa9">
		<plan>
			<act end_time="04:14:28" x="-4155051" y="-571382" type="home"/>
			<leg mode="pt"/>
			<act end_time="17:14:28" x="-4159171" y="-576226" type="work"/>
			<leg mode="pt"/>
			<act x="-4155051" y="-571382" type="home"/>
		</plan>
	</person>

	<person id="pessoa10">
		<plan>
			<act end_time="08:22:27" x="-4156346" y="-575070" type="work"/>
			<leg mode="pt"/>
			<act x="-4157406" y="-575184" type="home"/>
			<act end_time="20:22:27" x="-4157406" y="-575184" type="home"/>
			<leg mode="pt"/>
			<act x="-4156346" y="-575070" type="work"/>
		</plan>
	</person>

	<person id="pessoa11">
		<plan>
			<act end_time="06:21:21" x="-4153935" y="-579272" type="work"/>
			<leg mode="pt"/>
			<act x="-4161363" y="-584630" type="home"/>
			<act end_time="22:21:21" x="-4161363" y="-584630" type="home"/>
			<leg mode="pt"/>
			<act x="-4153935" y="-579272" type="work"/>
		</plan>
	</person>

	<person id="pessoa12">
		<plan>
			<act end_time="04:47:48" x="-4159951" y="-576751" type="work"/>
			<leg mode="pt"/>
			<act x="-4160005" y="-578438" type="home"/>
			<act end_time="22:47:48" x="-4160005" y="-578438" type="home"/>
			<leg mode="pt"/>
			<act x="-4159951" y="-576751" type="work"/>
		</plan>
	</person>

	<person id="pessoa13">
		<plan>
			<act end_time="13:20:42" x="-4158300.7008648654" y="-576268.3816022116" type="home"/>
			<leg mode="pt"/>
			<act end_time="21:20:42" x="-4156020.3897046177" y="-580940.4592875136" type="shop"/>
			<leg mode="pt"/>
			<act x="-4158300.7008648654" y="-576268.3816022116" type="home"/>
		</plan>
	</person>

	<person id="pessoa14">
		<plan>
			<act end_time="04:48:59" x="-4159248" y="-578402" type="home"/>
			<leg mode="pt"/>
			<act end_time="12:48:59" x="-4161343" y="-578514" type="shop"/>
			<leg mode="pt"/>
			<act x="-4159248" y="-578402" type="home"/>
		</plan>
	</person>

	<person id="pessoa15">
		<plan>
			<act end_time="13:20:21" x="-4157215" y="-576226" type="home"/>
			<leg mode="pt"/>
			<act end_time="17:20:21" x="-4148992" y="-576784" type="work"/>
			<leg mode="pt"/>
			<act x="-4157215" y="-576226" type="home"/>
		</plan>
	</person>

	<person id="pessoa16">
		<plan>
			<act end_time="08:21:35" x="-4158656" y="-579991" type="work"/>
			<leg mode="pt"/>
			<act x="-4159165.7290452183" y="-574264.157911288" type="home"/>
			<act end_time="19:21:35" x="-4159165.7290452183" y="-574264.157911288" type="home"/>
			<leg mode="pt"/>
			<act x="-4158656" y="-579991" type="work"/>
		</plan>
	</person>

	<person id="pessoa17">
		<plan>
			<act end_time="07:12:14" x="-4159983" y="-579800" type="home"/>
			<leg mode="pt"/>
			<act end_time="14:12:14" x="-4151481" y="-579460" type="shop"/>
			<leg mode="pt"/>
			<act end_time="18:12:14" x="-4163464" y="-586665" type="work"/>
			<leg mode="pt"/>
			<act x="-4159983" y="-579800" type="home"/>
		</plan>
	</person>

	<person id="pessoa18">
		<plan>
			<act end_time="07:50:54" x="-4158302" y="-573585" type="work"/>
			<leg mode="pt"/>
			<act x="-4162335" y="-580072" type="home"/>
			<act end_time="21:50:54" x="-4162335" y="-580072" type="home"/>
			<leg mode="pt"/>
			<act x="-4158302" y="-573585" type="work"/>
		</plan>
	</person>

	<person id="pessoa19">
		<plan>
			<act end_time="08:12:38" x="-4158453" y="-584505" type="work"/>
			<leg mode="pt"/>
			<act x="-4159039.913373425" y="-576696.3186049028" type="home"/>
			<act end_time="19:12:38" x="-4159039.913373425" y="-576696.3186049028" type="home"/>
			<leg mode="pt"/>
			<act x="-4158453" y="-584505" type="work"/>
		</plan>
	</person>

	<person id="pessoa20">
		<plan>
			<act end_time="13:41:05" x="-4162641" y="-584935" type="home"/>
			<leg mode="pt"/>
			<act end_time="22:41:05" x="-4157807.371973874" y="-579804.2606910103" type="work"/>
			<leg mode="pt"/>
			<act x="-4162641" y="-584935" type="home"/>
		</plan>
	</person>

	<person id="pessoa21">
		<plan>
			<act end_time="13:26:45" x="-4158822" y="-576811" type="home"/>
			<leg mode="pt"/>
			<act end_time="21:26:45" x="-4160304" y="-582981" type="work"/>
			<leg mode="pt"/>
			<act x="-4158822" y="-576811" type="home"/>
		</plan>
	</person>

	<person id="pessoa22">
		<plan>
			<act end_time="05:07:35" x="-4153989" y="-578792" type="work"/>
			<leg mode="pt"/>
			<act x="-4158478" y="-582655" type="home"/>
			<act end_time="19:07:35" x="-4158478" y="-582655" type="home"/>
			<leg mode="pt"/>
			<act x="-4153989" y="-578792" type="work"/>
		</plan>
	</person>

	<person id="pessoa23">
		<plan>
			<act end_time="05:23:14" x="-4159759.638519709" y="-575333.5651466713" type="home"/>
			<leg mode="pt"/>
			<act end_time="22:23:14" x="-4150475" y="-579072" type="work"/>
			<leg mode="pt"/>
			<act x="-4159759.638519709" y="-575333.5651466713" type="home"/>
		</plan>
	</person>

	<person id="pessoa24">
		<plan>
			<act end_time="05:50:04" x="-4156507.9155331645" y="-579793.4016112186" type="work"/>
			<leg mode="pt"/>
			<act x="-4151013" y="-579080" type="home"/>
			<act end_time="22:50:04" x="-4151013" y="-579080" type="home"/>
			<leg mode="pt"/>
			<act x="-4156507.9155331645" y="-579793.4016112186" type="work"/>
		</plan>
	</person>

	<person id="pessoa25">
		<plan>
			<act end_time="07:07:12" x="-4159247" y="-578803" type="work"/>
			<leg mode="pt"/>
			<act x="-4158464.3467548015" y="-576297.8787408036" type="home"/>
			<act end_time="20:07:12" x="-4158464.3467548015" y="-576297.8787408036" type="home"/>
			<leg mode="pt"/>
			<act x="-4159247" y="-578803" type="work"/>
		</plan>
	</person>

	<person id="pessoa26">
		<plan>
			<act end_time="08:11:26" x="-4154901" y="-583323" type="home"/>
			<leg mode="pt"/>
			<act end_time="11:11:26" x="-4156529.3688717373" y="-578453.6177140651" type="work"/>
			<leg mode="pt"/>
			<act x="-4154901" y="-583323" type="home"/>
		</plan>
	</person>

	<person id="pessoa27">
		<plan>
			<act end_time="04:17:53" x="-4154892" y="-574420" type="work"/>
			<leg mode="pt"/>
			<act x="-4159626.557841344" y="-574677.3430783655" type="home"/>
			<act end_time="20:17:53" x="-4159626.557841344" y="-574677.3430783655" type="home"/>
			<leg mode="pt"/>
			<act x="-4154892" y="-574420" type="work"/>
		</plan>
	</person>

	<person id="pessoa28">
		<plan>
			<act end_time="14:07:13" x="-4157989" y="-574130" type="home"/>
			<leg mode="pt"/>
			<act end_time="22:07:13" x="-4158037" y="-574734" type="work"/>
			<leg mode="pt"/>
			<act x="-4157989" y="-574130" type="home"/>
		</plan>
	</person>

	<person id="pessoa29">
		<plan>
			<act end_time="05:26:50" x="-4159436.7000768776" y="-576116.4394774296" type="home"/>
			<leg mode="pt"/>
			<act end_time="14:26:50" x="-4159366" y="-578272" type="work"/>
			<leg mode="pt"/>
			<act end_time="20:26:50" x="-4154855" y="-580084" type="shop"/>
			<leg mode="pt"/>
			<act x="-4159436.7000768776" y="-576116.4394774296" type="home"/>
		</plan>
	</person>

	<person id="pessoa30">
		<plan>
			<act end_time="08:43:06" x="-4158372" y="-573958" type="work"/>
			<leg mode="pt"/>
			<act x="-4158822.916132666" y="-573925.5862376111" type="home"/>
			<act end_time="20:43:06" x="-4158822.916132666" y="-573925.5862376111" type="home"/>
			<leg mode="pt"/>
			<act x="-4158372" y="-573958" type="work"/>
		</plan>
	</person>

	<person id="pessoa31">
		<plan>
			<act end_time="13:55:16" x="-4153701" y="-579748" type="home"/>
			<leg mode="pt"/>
			<act end_time="18:55:16" x="-4155217.040690399" y="-581581.435050312" type="shop"/>
			<leg mode="pt"/>
			<act x="-4153701" y="-579748" type="home"/>
		</plan>
	</person>

	<person id="pessoa32">
		<plan>
			<act end_time="11:08:57" x="-4158764" y="-578536" type="home"/>
			<leg mode="pt"/>
			<act end_time="18:08:57" x="-4155402.6483246414" y="-580351.3215993289" type="shop"/>
			<leg mode="pt"/>
			<act x="-4158764" y="-578536" type="home"/>
		</plan>
	</person>

	<person id="pessoa33">
		<plan>
			<act end_time="08:34:42" x="-4151188" y="-582360" type="home"/>
			<leg mode="pt"/>
			<act end_time="13:34:42" x="-4154102" y="-579512" type="shop"/>
			<leg mode="pt"/>
			<act x="-4151188" y="-582360" type="home"/>
		</plan>
	</person>

	<person id="pessoa34">
		<plan>
			<act end_time="04:39:33" x="-4157586.025556266" y="-579204.4005445417" type="work"/>
			<leg mode="pt"/>
			<act x="-4158593.7252745493" y="-575419.1992841663" type="home"/>
			<act end_time="21:39:33" x="-4158593.7252745493" y="-575419.1992841663" type="home"/>
			<leg mode="pt"/>
			<act x="-4157586.025556266" y="-579204.4005445417" type="work"/>
		</plan>
	</person>

	<person id="pessoa35">
		<plan>
			<act end_time="06:48:27" x="-4153522" y="-579907" type="home"/>
			<leg mode="pt"/>
			<act end_time="11:48:27" x="-4158809" y="-576929" type="work"/>
			<leg mode="pt"/>
			<act x="-4153522" y="-579907" type="home"/>
		</plan>
	</person>

	<person id="pessoa36">
		<plan>
			<act end_time="04:38:42" x="-4158122" y="-579715" type="home"/>
			<leg mode="pt"/>
			<act end_time="13:38:42" x="-4156209.78555874" y="-578142.5032254199" type="work"/>
			<leg mode="pt"/>
			<act end_time="21:38:42" x="-4157120" y="-577043" type="shop"/>
			<leg mode="pt"/>
			<act x="-4158122" y="-579715" type="home"/>
		</plan>
	</person>

	<person id="pessoa37">
		<plan>
			<act end_time="08:45:34" x="-4153109" y="-579540" type="home"/>
			<leg mode="pt"/>
			<act end_time="11:45:34" x="-4154821" y="-583832" type="work"/>
			<leg mode="pt"/>
			<act x="-4153109" y="-579540" type="home"/>
		</plan>
	</person>

	<person id="pessoa38">
		<plan>
			<act end_time="07:00:07" x="-4158798" y="-580946" type="home"/>
			<leg mode="pt"/>
			<act end_time="11:00:07" x="-4155709.221049748" y="-581131.3397811855" type="shop"/>
			<leg mode="pt"/>
			<act x="-4158798" y="-580946" type="home"/>
		</plan>
	</person>

	<person id="pessoa39">
		<plan>
			<act end_time="13:18:47" x="-4161448" y="-578980" type="home"/>
			<leg mode="pt"/>
			<act end_time="20:18:47" x="-4162738" y="-586985" type="work"/>
			<leg mode="pt"/>
			<act x="-4161448" y="-578980" type="home"/>
		</plan>
	</person>

	<person id="pessoa40">
		<plan>
			<act end_time="07:24:10" x="-4156773" y="-576017" type="work"/>
			<leg mode="pt"/>
			<act x="-4157805" y="-576898" type="home"/>
			<act end_time="17:24:10" x="-4157805" y="-576898" type="home"/>
			<leg mode="pt"/>
			<act x="-4156773" y="-576017" type="work"/>
		</plan>
	</person>

	<person id="pessoa41">
		<plan>
			<act end_time="12:58:11" x="-4150645" y="-582743" type="home"/>
			<leg mode="pt"/>
			<act end_time="22:58:11" x="-4156244.248099256" y="-580816.2856667605" type="shop"/>
			<leg mode="pt"/>
			<act x="-4150645" y="-582743" type="home"/>
		</plan>
	</person>

	<person id="pessoa42">
		<plan>
			<act end_time="06:47:29" x="-4160099" y="-578274" type="work"/>
			<leg mode="pt"/>
			<act x="-4158781.470123788" y="-576055.7131503605" type="home"/>
			<act end_time="20:47:29" x="-4158781.470123788" y="-576055.7131503605" type="home"/>
			<leg mode="pt"/>
			<act x="-4160099" y="-578274" type="work"/>
		</plan>
	</person>

	<person id="pessoa43">
		<plan>
			<act end_time="04:21:18" x="-4160841" y="-579843" type="home"/>
			<leg mode="pt"/>
			<act end_time="12:21:18" x="-4158020" y="-582472" type="work"/>
			<leg mode="pt"/>
			<act x="-4160841" y="-579843" type="home"/>
		</plan>
	</person>

	<person id="pessoa44">
		<plan>
			<act end_time="07:08:40" x="-4155655" y="-584376" type="home"/>
			<leg mode="pt"/>
			<act end_time="20:08:40" x="-4154817" y="-584825" type="work"/>
			<leg mode="pt"/>
			<act x="-4155655" y="-584376" type="home"/>
		</plan>
	</person>

	<person id="pessoa45">
		<plan>
			<act end_time="06:50:54" x="-4150428" y="-581496" type="home"/>
			<leg mode="pt"/>
			<act end_time="17:50:54" x="-4159363" y="-574811" type="work"/>
			<leg mode="pt"/>
			<act x="-4150428" y="-581496" type="home"/>
		</plan>
	</person>

	<person id="pessoa46">
		<plan>
			<act end_time="07:38:12" x="-4151914" y="-578139" type="work"/>
			<leg mode="pt"/>
			<act x="-4158777.0198012646" y="-576130.6067121082" type="home"/>
			<act end_time="18:38:12" x="-4158777.0198012646" y="-576130.6067121082" type="home"/>
			<leg mode="pt"/>
			<act x="-4151914" y="-578139" type="work"/>
		</plan>
	</person>

	<person id="pessoa47">
		<plan>
			<act end_time="14:16:51" x="-4159167.7535136174" y="-574006.1079276734" type="home"/>
			<leg mode="pt"/>
			<act end_time="19:16:51" x="-4157587.479013475" y="-578521.632008774" type="work"/>
			<leg mode="pt"/>
			<act x="-4159167.7535136174" y="-574006.1079276734" type="home"/>
		</plan>
	</person>

	<person id="pessoa48">
		<plan>
			<act end_time="06:37:49" x="-4154917" y="-575705" type="work"/>
			<leg mode="pt"/>
			<act x="-4157733.513082185" y="-576945.2119313534" type="home"/>
			<act end_time="21:37:49" x="-4157733.513082185" y="-576945.2119313534" type="home"/>
			<leg mode="pt"/>
			<act x="-4154917" y="-575705" type="work"/>
		</plan>
	</person>

	<person id="pessoa49">
		<plan>
			<act end_time="06:44:51" x="-4153176" y="-578735" type="work"/>
			<leg mode="pt"/>
			<act x="-4149512" y="-579712" type="home"/>
			<act end_time="17:44:51" x="-4149512" y="-579712" type="home"/>
			<leg mode="pt"/>
			<act x="-4153176" y="-578735" type="work"/>
		</plan>
	</person>

	<person id="pessoa50">
		<plan>
			<act end_time="04:47:47" x="-4157369.022324586" y="-578824.2659605892" type="work"/>
			<leg mode="pt"/>
			<act x="-4158683.292002341" y="-574134.6949364926" type="home"/>
			<act end_time="18:47:47" x="-4158683.292002341" y="-574134.6949364926" type="home"/>
			<leg mode="pt"/>
			<act x="-4157369.022324586" y="-578824.2659605892" type="work"/>
		</plan>
	</person>

	<person id="pessoa51">
		<plan>
			<act end_time="06:33:39" x="-4153369" y="-584822" type="home"/>
			<leg mode="pt"/>
			<act end_time="11:33:39" x="-4157626.7998606046" y="-579329.8513221984" type="work"/>
			<leg mode="pt"/>
			<act x="-4153369" y="-584822" type="home"/>
		</plan>
	</person>

	<person id="pessoa52">
		<plan>
			<act end_time="04:30:28" x="-4159146" y="-572708" type="work"/>
			<leg mode="pt"/>
			<act x="-4156621" y="-581592" type="home"/>
			<act end_time="20:30:28" x="-4156621" y="-581592" type="home"/>
			<leg mode="pt"/>
			<act x="-4159146" y="-572708" type="work"/>
		</plan>
	</person>

	<person id="pessoa53">
		<plan>
			<act end_time="08:33:46" x="-4156916.3375660274" y="-578136.1138339227" type="work"/>
			<leg mode="pt"/>
			<act x="-4157951.0569278183" y="-574642.7089642135" type="home"/>
			<act end_time="20:33:46" x="-4157951.0569278183" y="-574642.7089642135" type="home"/>
			<leg mode="pt"/>
			<act x="-4156916.3375660274" y="-578136.1138339227" type="work"/>
		</plan>
	</person>

	<person id="pessoa54">
		<plan>
			<act end_time="04:44:38" x="-4156109.655795138" y="-579726.9557747594" type="work"/>
			<leg mode="pt"/>
			<act x="-4153230" y="-584678" type="home"/>
			<act end_time="18:44:38" x="-4153230" y="-584678" type="home"/>
			<leg mode="pt"/>
			<act x="-4156109.655795138" y="-579726.9557747594" type="work"/>
		</plan>
	</person>

	<person id="pessoa55">
		<plan>
			<act end_time="13:43:14" x="-4153872" y="-580169" type="home"/>
			<leg mode="pt"/>
			<act end_time="17:43:14" x="-4153842" y="-582858" type="shop"/>
			<leg mode="pt"/>
			<act x="-4153872" y="-580169" type="home"/>
		</plan>
	</person>

	<person id="pessoa56">
		<plan>
			<act end_time="04:24:07" x="-4159512" y="-572985" type="work"/>
			<leg mode="pt"/>
			<act x="-4158494.860152187" y="-576246.7211867045" type="home"/>
			<act end_time="20:24:07" x="-4158494.860152187" y="-576246.7211867045" type="home"/>
			<leg mode="pt"/>
			<act x="-4159512" y="-572985" type="work"/>
		</plan>
	</person>

	<person id="pessoa57">
		<plan>
			<act end_time="08:11:29" x="-4159050" y="-573408" type="work"/>
			<leg mode="pt"/>
			<act x="-4155984" y="-581009" type="home"/>
			<act end_time="19:11:29" x="-4155984" y="-581009" type="home"/>
			<leg mode="pt"/>
			<act x="-4159050" y="-573408" type="work"/>
		</plan>
	</person>

	<person id="pessoa58">
		<plan>
			<act end_time="11:50:05" x="-4159016.7537319874" y="-576312.0827482392" type="home"/>
			<leg mode="pt"/>
			<act end_time="21:50:05" x="-4159346" y="-581156" type="work"/>
			<leg mode="pt"/>
			<act x="-4159016.7537319874" y="-576312.0827482392" type="home"/>
		</plan>
	</person>

	<person id="pessoa59">
		<plan>
			<act end_time="06:23:27" x="-4149627" y="-577802" type="work"/>
			<leg mode="pt"/>
			<act x="-4158023.0662506996" y="-576603.0660493982" type="home"/>
			<act end_time="18:23:27" x="-4158023.0662506996" y="-576603.0660493982" type="home"/>
			<leg mode="pt"/>
			<act x="-4149627" y="-577802" type="work"/>
		</plan>
	</person>

	<person id="pessoa60">
		<plan>
			<act end_time="04:41:32" x="-4159712" y="-574122" type="work"/>
			<leg mode="pt"/>
			<act x="-4158315.1684310953" y="-574901.400750735" type="home"/>
			<act end_time="17:41:32" x="-4158315.1684310953" y="-574901.400750735" type="home"/>
			<leg mode="pt"/>
			<act x="-4159712" y="-574122" type="work"/>
		</plan>
	</person>

	<person id="pessoa61">
		<plan>
			<act end_time="11:53:11" x="-4159458.107521011" y="-576021.5360042993" type="home"/>
			<leg mode="pt"/>
			<act end_time="19:53:11" x="-4150806" y="-578720" type="work"/>
			<leg mode="pt"/>
			<act x="-4159458.107521011" y="-576021.5360042993" type="home"/>
		</plan>
	</person>

	<person id="pessoa62">
		<plan>
			<act end_time="06:36:52" x="-4158274.3818052947" y="-575611.568020793" type="home"/>
			<leg mode="pt"/>
			<act end_time="19:36:52" x="-4157173.5414377037" y="-578932.3479440031" type="work"/>
			<leg mode="pt"/>
			<act x="-4158274.3818052947" y="-575611.568020793" type="home"/>
		</plan>
	</person>

	<person id="pessoa63">
		<plan>
			<act end_time="11:54:54" x="-4158583" y="-576176" type="home"/>
			<leg mode="pt"/>
			<act end_time="19:54:54" x="-4157631.921784752" y="-579423.1077687796" type="work"/>
			<leg mode="pt"/>
			<act x="-4158583" y="-576176" type="home"/>
		</plan>
	</person>

	<person id="pessoa64">
		<plan>
			<act end_time="11:41:39" x="-4161391" y="-572440" type="home"/>
			<leg mode="pt"/>
			<act end_time="20:41:39" x="-4154515" y="-584992" type="work"/>
			<leg mode="pt"/>
			<act x="-4161391" y="-572440" type="home"/>
		</plan>
	</person>

	<person id="pessoa65">
		<plan>
			<act end_time="14:10:11" x="-4158282" y="-579938" type="home"/>
			<leg mode="pt"/>
			<act end_time="20:10:11" x="-4151981" y="-578189" type="shop"/>
			<leg mode="pt"/>
			<act x="-4158282" y="-579938" type="home"/>
		</plan>
	</person>

	<person id="pessoa66">
		<plan>
			<act end_time="06:56:31" x="-4154685" y="-583452" type="home"/>
			<leg mode="pt"/>
			<act end_time="11:56:31" x="-4161394" y="-578868" type="work"/>
			<leg mode="pt"/>
			<act end_time="20:56:31" x="-4156381.2673765244" y="-581083.5588380647" type="shop"/>
			<leg mode="pt"/>
			<act x="-4154685" y="-583452" type="home"/>
		</plan>
	</person>

	<person id="pessoa67">
		<plan>
			<act end_time="05:43:55" x="-4158398.310949918" y="-575100.1946598" type="home"/>
			<leg mode="pt"/>
			<act end_time="11:43:55" x="-4158905" y="-578217" type="work"/>
			<leg mode="pt"/>
			<act x="-4158398.310949918" y="-575100.1946598" type="home"/>
		</plan>
	</person>

	<person id="pessoa68">
		<plan>
			<act end_time="06:22:20" x="-4159571.754856005" y="-576345.5470173312" type="home"/>
			<leg mode="pt"/>
			<act end_time="18:22:20" x="-4150427" y="-580186" type="work"/>
			<leg mode="pt"/>
			<act x="-4159571.754856005" y="-576345.5470173312" type="home"/>
		</plan>
	</person>

	<person id="pessoa69">
		<plan>
			<act end_time="06:55:28" x="-4154637" y="-570890" type="work"/>
			<leg mode="pt"/>
			<act x="-4156424" y="-579775" type="home"/>
			<act end_time="21:55:28" x="-4156424" y="-579775" type="home"/>
			<leg mode="pt"/>
			<act x="-4154637" y="-570890" type="work"/>
		</plan>
	</person>

	<person id="pessoa70">
		<plan>
			<act end_time="04:22:50" x="-4157458" y="-579049" type="work"/>
			<leg mode="pt"/>
			<act x="-4160674" y="-579264" type="home"/>
			<act end_time="17:22:50" x="-4160674" y="-579264" type="home"/>
			<leg mode="pt"/>
			<act x="-4157458" y="-579049" type="work"/>
		</plan>
	</person>

	<person id="pessoa71">
		<plan>
			<act end_time="05:37:54" x="-4157940.3898227476" y="-579987.7191348744" type="work"/>
			<leg mode="pt"/>
			<act x="-4153276" y="-584209" type="home"/>
			<act end_time="19:37:54" x="-4153276" y="-584209" type="home"/>
			<leg mode="pt"/>
			<act x="-4157940.3898227476" y="-579987.7191348744" type="work"/>
		</plan>
	</person>

	<person id="pessoa72">
		<plan>
			<act end_time="07:32:47" x="-4156796" y="-577891" type="work"/>
			<leg mode="pt"/>
			<act x="-4153288" y="-580443" type="home"/>
			<act end_time="19:32:47" x="-4153288" y="-580443" type="home"/>
			<leg mode="pt"/>
			<act x="-4156796" y="-577891" type="work"/>
		</plan>
	</person>

	<person id="pessoa73">
		<plan>
			<act end_time="13:39:12" x="-4157105" y="-581628" type="home"/>
			<leg mode="pt"/>
			<act end_time="20:39:12" x="-4160233" y="-571367" type="work"/>
			<leg mode="pt"/>
			<act x="-4157105" y="-581628" type="home"/>
		</plan>
	</person>

	<person id="pessoa74">
		<plan>
			<act end_time="07:04:40" x="-4156417" y="-581106" type="home"/>
			<leg mode="pt"/>
			<act end_time="17:04:40" x="-4157780.7977265175" y="-579816.9029280237" type="work"/>
			<leg mode="pt"/>
			<act x="-4156417" y="-581106" type="home"/>
		</plan>
	</person>

	<person id="pessoa75">
		<plan>
			<act end_time="08:29:19" x="-4156648" y="-576228" type="home"/>
			<leg mode="pt"/>
			<act end_time="20:29:19" x="-4158555" y="-579355" type="work"/>
			<leg mode="pt"/>
			<act x="-4156648" y="-576228" type="home"/>
		</plan>
	</person>

	<person id="pessoa76">
		<plan>
			<act end_time="08:02:36" x="-4152612" y="-575197" type="home"/>
			<leg mode="pt"/>
			<act end_time="12:02:36" x="-4160256" y="-580006" type="shop"/>
			<leg mode="pt"/>
			<act x="-4152612" y="-575197" type="home"/>
		</plan>
	</person>

	<person id="pessoa77">
		<plan>
			<act end_time="08:49:09" x="-4158458.126171977" y="-576859.0327335418" type="home"/>
			<leg mode="pt"/>
			<act end_time="11:49:09" x="-4149097" y="-576692" type="shop"/>
			<leg mode="pt"/>
			<act end_time="21:49:09" x="-4160685" y="-579279" type="work"/>
			<leg mode="pt"/>
			<act x="-4158458.126171977" y="-576859.0327335418" type="home"/>
		</plan>
	</person>

	<person id="pessoa78">
		<plan>
			<act end_time="13:56:30" x="-4159454.855515332" y="-576007.4261214167" type="home"/>
			<leg mode="pt"/>
			<act end_time="20:56:30" x="-4153100" y="-579538" type="shop"/>
			<leg mode="pt"/>
			<act x="-4159454.855515332" y="-576007.4261214167" type="home"/>
		</plan>
	</person>

	<person id="pessoa79">
		<plan>
			<act end_time="11:49:23" x="-4161410" y="-578480" type="home"/>
			<leg mode="pt"/>
			<act end_time="21:49:23" x="-4153158" y="-578234" type="work"/>
			<leg mode="pt"/>
			<act x="-4161410" y="-578480" type="home"/>
		</plan>
	</person>

	<person id="pessoa80">
		<plan>
			<act end_time="06:35:04" x="-4156931.7086095093" y="-579092.7145819644" type="work"/>
			<leg mode="pt"/>
			<act x="-4158174" y="-580509" type="home"/>
			<act end_time="17:35:04" x="-4158174" y="-580509" type="home"/>
			<leg mode="pt"/>
			<act x="-4156931.7086095093" y="-579092.7145819644" type="work"/>
		</plan>
	</person>

	<person id="pessoa81">
		<plan>
			<act end_time="08:41:38" x="-4159005.080034325" y="-574626.8764496763" type="home"/>
			<leg mode="pt"/>
			<act end_time="13:41:38" x="-4154070" y="-583010" type="shop"/>
			<leg mode="pt"/>
			<act end_time="17:41:38" x="-4156149" y="-582698" type="work"/>
			<leg mode="pt"/>
			<act x="-4159005.080034325" y="-574626.8764496763" type="home"/>
		</plan>
	</person>

	<person id="pessoa82">
		<plan>
			<act end_time="04:17:30" x="-4154801" y="-571108" type="home"/>
			<leg mode="pt"/>
			<act end_time="21:17:30" x="-4158134" y="-577876" type="work"/>
			<leg mode="pt"/>
			<act x="-4154801" y="-571108" type="home"/>
		</plan>
	</person>

	<person id="pessoa83">
		<plan>
			<act end_time="06:53:22" x="-4162600" y="-584365" type="work"/>
			<leg mode="pt"/>
			<act x="-4152698" y="-584633" type="home"/>
			<act end_time="18:53:22" x="-4152698" y="-584633" type="home"/>
			<leg mode="pt"/>
			<act x="-4162600" y="-584365" type="work"/>
		</plan>
	</person>

	<person id="pessoa84">
		<plan>
			<act end_time="06:58:04" x="-4157463.0535481507" y="-579771.9238810827" type="work"/>
			<leg mode="pt"/>
			<act x="-4158007.130271875" y="-575112.975237265" type="home"/>
			<act end_time="20:58:04" x="-4158007.130271875" y="-575112.975237265" type="home"/>
			<leg mode="pt"/>
			<act x="-4157463.0535481507" y="-579771.9238810827" type="work"/>
		</plan>
	</person>

	<person id="pessoa85">
		<plan>
			<act end_time="11:51:26" x="-4153261" y="-583850" type="home"/>
			<leg mode="pt"/>
			<act end_time="19:51:26" x="-4152211" y="-579010" type="shop"/>
			<leg mode="pt"/>
			<act x="-4153261" y="-583850" type="home"/>
		</plan>
	</person>

	<person id="pessoa86">
		<plan>
			<act end_time="06:26:49" x="-4158833.366130231" y="-574341.1783057973" type="home"/>
			<leg mode="pt"/>
			<act end_time="18:26:49" x="-4157514.1648250963" y="-579598.8502041585" type="work"/>
			<leg mode="pt"/>
			<act x="-4158833.366130231" y="-574341.1783057973" type="home"/>
		</plan>
	</person>

	<person id="pessoa87">
		<plan>
			<act end_time="14:34:33" x="-4157545" y="-577056" type="home"/>
			<leg mode="pt"/>
			<act end_time="17:34:33" x="-4156018" y="-577032" type="work"/>
			<leg mode="pt"/>
			<act x="-4157545" y="-577056" type="home"/>
		</plan>
	</person>

	<person id="pessoa88">
		<plan>
			<act end_time="13:01:24" x="-4158688.390459848" y="-576439.3306190642" type="home"/>
			<leg mode="pt"/>
			<act end_time="21:01:24" x="-4157530" y="-576482" type="shop"/>
			<leg mode="pt"/>
			<act x="-4158688.390459848" y="-576439.3306190642" type="home"/>
		</plan>
	</person>

	<person id="pessoa89">
		<plan>
			<act end_time="05:12:17" x="-4156274" y="-579741" type="work"/>
			<leg mode="pt"/>
			<act x="-4152569" y="-584683" type="home"/>
			<act end_time="21:12:17" x="-4152569" y="-584683" type="home"/>
			<leg mode="pt"/>
			<act x="-4156274" y="-579741" type="work"/>
		</plan>
	</person>

	<person id="pessoa90">
		<plan>
			<act end_time="13:56:21" x="-4153152" y="-578182" type="home"/>
			<leg mode="pt"/>
			<act end_time="17:56:21" x="-4158012" y="-577508" type="shop"/>
			<leg mode="pt"/>
			<act x="-4153152" y="-578182" type="home"/>
		</plan>
	</person>

	<person id="pessoa91">
		<plan>
			<act end_time="04:06:08" x="-4156737.2049571476" y="-579271.713528795" type="work"/>
			<leg mode="pt"/>
			<act x="-4150165" y="-581710" type="home"/>
			<act end_time="17:06:08" x="-4150165" y="-581710" type="home"/>
			<leg mode="pt"/>
			<act x="-4156737.2049571476" y="-579271.713528795" type="work"/>
		</plan>
	</person>

	<person id="pessoa92">
		<plan>