<?xml version="1.0" encoding="utf-8"?>
<!DOCTYPE facilities SYSTEM "http://www.matsim.org/files/dtd/facilities_v1.dtd">

<facilities>
	
	<facility id="parada_Linha7_Volta9" x="-4155706.8726254734" y="-581145.4599065757"/>
	<facility id="parada_Linha7_Volta10" x="-4155413.2118087607" y="-581631.6010605585"/>
	<facility id="parada_Linha7_Volta11" x="-4155160.2939256784" y="-582072.249736192"/>
	<facility id="parada_Linha7_Volta12" x="-4154314.2657956495" y="-583124.5080755275"/>
	<facility id="parada_Linha7_Volta13" x="-4154143.9469747357" y="-583208.7605214274"/>
	<facility id="parada_Linha7_Volta14" x="-4153972.514958914" y="-583301.9447167076"/>
	<facility id="parada_Linha7_Volta15" x="-4153867.874637569" y="-583388.2877647112"/>
	<facility id="parada_Linha7_Volta16" x="-4153752.881603579" y="-583449.814517518"/>
	<facility id="parada_Linha7_Volta17" x="-4153672.1749727535" y="-583488.7829794404"/>
	<facility id="parada_Linha7_Volta18" x="-4153583.453338592" y="-583535.7888552686"/>
	<facility id="parada_Linha7_Volta19" x="-4153480.4828096074" y="-583590.0608392052"/>
	<facility id="parada_Linha7_Volta20" x="-4153327.9751072214" y="-583666.8577247256"/>
	<facility id="parada_Linha7_Volta21" x="-4153228.9007604145" y="-583711.0578918565"/>
</facilities>