<?xml version="1.0" encoding="utf-8"?>
<!DOCTYPE facilities SYSTEM "http://www.matsim.org/files/dtd/facilities_v1.dtd">

<facilities>
	<facility id="paradaAB_UNIFICADO_IDA0" x="0" y="0"/>
	<facility id="paradaAB_UNIFICADO_IDA1" x="0" y="0"/>
	<facility id="paradaAB_UNIFICADO_IDA2" x="0" y="0"/>
	<facility id="paradaAB_UNIFICADO_IDA3" x="0" y="0"/>
	<facility id="paradaAB_UNIFICADO_IDA4" x="0" y="0"/>
	<facility id="paradaAB_UNIFICADO_IDA5" x="0" y="0"/>
	<facility id="paradaAB_UNIFICADO_IDA6" x="0" y="0"/>
	<facility id="paradaAB_UNIFICADO_IDA7" x="0" y="0"/>
	<facility id="paradaAB_UNIFICADO_IDA8" x="0" y="0"/>
	<facility id="paradaAB_UNIFICADO_IDA9" x="0" y="0"/>
	<facility id="paradaAB_UNIFICADO_IDA10" x="0" y="0"/>
	<facility id="paradaAB_UNIFICADO_IDA11" x="0" y="0"/>
	<facility id="paradaAB_UNIFICADO_IDA12" x="0" y="0"/>
	<facility id="paradaAB_UNIFICADO_IDA13" x="0" y="0"/>
	<facility id="paradaAB_UNIFICADO_IDA14" x="0" y="0"/>
	<facility id="paradaAB_UNIFICADO_IDA15" x="0" y="0"/>
	<facility id="paradaAB_UNIFICADO_IDA16" x="0" y="0"/>
	<facility id="paradaAB_UNIFICADO_IDA17" x="0" y="0"/>
	<facility id="paradaAB_UNIFICADO_IDA18" x="0" y="0"/>
	<facility id="paradaAB_UNIFICADO_IDA19" x="0" y="0"/>
	<facility id="paradaAB_UNIFICADO_IDA20" x="0" y="0"/>
	<facility id="paradaAB_UNIFICADO_IDA21" x="0" y="0"/>
	<facility id="paradaAB_UNIFICADO_IDA22" x="0" y="0"/>
	<facility id="paradaAB_UNIFICADO_IDA23" x="0" y="0"/>
	<facility id="paradaAB_UNIFICADO_IDA24" x="0" y="0"/>
	<facility id="paradaAB_UNIFICADO_IDA25" x="0" y="0"/>
	<facility id="paradaAB_UNIFICADO_IDA26" x="0" y="0"/>
	<facility id="paradaAB_UNIFICADO_IDA27" x="0" y="0"/>
	<facility id="paradaAB_UNIFICADO_IDA28" x="0" y="0"/>
	<facility id="paradaAB_UNIFICADO_IDA29" x="0" y="0"/>
	<facility id="paradaAB_UNIFICADO_IDA30" x="0" y="0"/>
</facilities>