<?xml version="1.0" encoding="utf-8"?>
<!DOCTYPE facilities SYSTEM "http://www.matsim.org/files/dtd/facilities_v1.dtd">

<facilities>
	<facility id="parada_Linha3_Santo_Antonio0" x="-4157054.061103053" y="-575809.9767798396"/>
	<facility id="parada_Linha3_Santo_Antonio1" x="-4156847.34080865" y="-575483.6326198824"/>
	<facility id="parada_Linha3_Santo_Antonio2" x="-4156526.184077712" y="-575698.0469458762"/>
	<facility id="parada_Linha3_Santo_Antonio3" x="-4156441.358625727" y="-575880.170534665"/>
	<facility id="parada_Linha3_Santo_Antonio4" x="-4156571.8250689367" y="-576035.424166226"/>
	<facility id="parada_Linha3_Santo_Antonio5" x="-4156359.2048415216" y="-576150.0594635282"/>
	<facility id="parada_Linha3_Santo_Antonio6" x="-4156272.375638703" y="-576008.5537509223"/>
	<facility id="parada_Linha3_Santo_Antonio7" x="-4156194.2293561664" y="-575880.170534665"/>
	<facility id="parada_Linha3_Santo_Antonio8" x="-4156043.057487669" y="-575871.7875188863"/>
	<facility id="parada_Linha3_Santo_Antonio9" x="-4155914.817434275" y="-575957.7414210662"/>
	<facility id="parada_Linha3_Santo_Antonio10" x="-4155781.0114063416" y="-576046.7692073613"/>
	<facility id="parada_Linha3_Santo_Antonio11" x="-4155644.3110716473" y="-576185.312984432"/>
	<facility id="parada_Linha3_Santo_Antonio12" x="-4155775.890709765" y="-576402.7138104489"/>
	<facility id="parada_Linha3_Santo_Antonio13" x="-4155864.9463023995" y="-576550.7591253591"/>
	<facility id="parada_Linha3_Santo_Antonio14" x="-4156004.7635828364" y="-576785.4303064636"/>
	<facility id="parada_Linha3_Santo_Antonio15" x="-4156069.774165459" y="-577001.0445714961"/>
	<facility id="parada_Linha3_Santo_Antonio16" x="-4155909.2514597354" y="-577106.717038747"/>
	<facility id="parada_Linha3_Santo_Antonio17" x="-4155846.355947437" y="-577243.4856580432"/>
	<facility id="parada_Linha3_Santo_Antonio18" x="-4156086.8060475513" y="-577624.4629953668"/>
	<facility id="parada_Linha3_Santo_Antonio19" x="-4156495.01462029" y="-578218.7354103766"/>
	<facility id="parada_Linha3_Santo_Antonio20" x="-4156719.8799916916" y="-578082.479076539"/>
	<facility id="parada_Linha3_Santo_Antonio21" x="-4156818.9543384984" y="-578026.2552517317"/>
	<facility id="parada_Linha3_Santo_Antonio22" x="-4157013.763447386" y="-577978.4147362716"/>
	<facility id="parada_Linha3_Santo_Antonio23" x="-4157067.196802967" y="-578065.7795899014"/>
	
	<facility id="parada_Praca_Dos_Hospitais" x="-4157137.586872" y="-578160.201966"/>
	<facility id="parada_Linha3_Santo_Antonio24" x="-4157059.404438611" y="-578278.8715954764"/>
	<facility id="parada_Estacao_Das_Artes" x="-4157185.1954632085" y="-578432.006722123"/>
	<facility id="parada_Teatro_Dix-Huit" x="-4157267.5718863956" y="-578558.8743964208"/>
	<facility id="parada_Loterica_Sorteca" x="-4157052.117734" y="-578695.037227"/>
	<facility id="parada_Central" x="-4156993.725939044" y="-578833.40117623"/>
	<facility id="parada_Caixa_Economica_Federal" x="-4157167.594377" y="-579124.995512"/>
	<facility id="parada_Oficinas" x="-4157316.107184381" y="-579363.008384986"/>
	<facility id="parada_AeC" x="-4157254.2135475" y="-579402.5781843684"/>
	<facility id="terminal_Carcara" x="-4157010.4238626626" y="-579083.7513058769"/>
</facilities>