<?xml version="1.0" encoding="utf-8"?>
<!DOCTYPE facilities SYSTEM "http://www.matsim.org/files/dtd/facilities_v1.dtd">

<facilities>

	<facility id="casaPessoa0" x="-4151095" y="-578877"/>
	<facility id="trabalho0" x="-4155957" y="-575560"/>
	<facility id="loja0" x="-4153880" y="-579320"/>

	<facility id="casaPessoa1" x="-4156278" y="-581022"/>
	<facility id="trabalho1" x="-4151058" y="-579053"/>
	<facility id="loja1" x="-4152034" y="-578302"/>

	<facility id="casaPessoa2" x="-4154535" y="-582771"/>
	<facility id="loja2" x="-4154830" y="-583075"/>

	<facility id="casaPessoa3" x="-4160573" y="-579957"/>
	<facility id="trabalho3" x="-4152516" y="-577814"/>
	<facility id="loja3" x="-4155055" y="-582295"/>

	<facility id="casaPessoa4" x="-4160560" y="-571651"/>
	<facility id="trabalho4" x="-4153920" y="-580382"/>
	<facility id="loja4" x="-4154808" y="-579814"/>

	<facility id="casaPessoa5" x="-4160005" y="-580069"/>
	<facility id="loja5" x="-4152913" y="-584227"/>

	<facility id="casaPessoa6" x="-4154631" y="-581076"/>
	<facility id="trabalho6" x="-4159462" y="-573031"/>
	<facility id="loja6" x="-4155327" y="-571151"/>

	<facility id="casaPessoa7" x="-4158514" y="-574427"/>
	<facility id="trabalho7" x="-4157167" y="-581020"/>
	<facility id="loja7" x="-4156985" y="-580831"/>

	<facility id="casaPessoa8" x="-4157649" y="-579523"/>
	<facility id="trabalho8" x="-4158432" y="-577532"/>

	<facility id="casaPessoa9" x="-4157058" y="-577918"/>
	<facility id="trabalho9" x="-4149625" y="-579456"/>

	<facility id="casaPessoa10" x="-4153850" y="-579684"/>
	<facility id="trabalho10" x="-4150229" y="-581780"/>
	<facility id="loja10" x="-4154917" y="-571057"/>

	<facility id="casaPessoa11" x="-4156004" y="-578151"/>
	<facility id="trabalho11" x="-4156581" y="-583942"/>
	<facility id="loja11" x="-4153959" y="-583446"/>

	<facility id="casaPessoa12" x="-4163058" y="-584128"/>
	<facility id="trabalho12" x="-4156174" y="-572174"/>

	<facility id="casaPessoa13" x="-4160779" y="-577363"/>
	<facility id="trabalho13" x="-4153821" y="-580542"/>

	<facility id="casaPessoa14" x="-4157352" y="-583070"/>
	<facility id="trabalho14" x="-4154726" y="-583313"/>
	<facility id="loja14" x="-4160688" y="-576545"/>

	<facility id="casaPessoa15" x="-4157666" y="-577607"/>
	<facility id="trabalho15" x="-4159704" y="-573939"/>
	<facility id="loja15" x="-4154342" y="-579871"/>

	<facility id="casaPessoa16" x="-4160550" y="-579290"/>
	<facility id="trabalho16" x="-4151230" y="-579440"/>

	<facility id="casaPessoa17" x="-4153870" y="-580233"/>
	<facility id="trabalho17" x="-4154662" y="-584354"/>
	<facility id="loja17" x="-4155314" y="-583704"/>

	<facility id="casaPessoa18" x="-4156174" y="-580907"/>
	<facility id="loja18" x="-4161048" y="-574380"/>

	<facility id="casaPessoa19" x="-4161620" y="-584724"/>
	<facility id="trabalho19" x="-4152338" y="-578100"/>
	<facility id="loja19" x="-4157761" y="-577467"/>

	<facility id="casaPessoa20" x="-4157341" y="-579791"/>
	<facility id="trabalho20" x="-4158361" y="-579273"/>

	<facility id="casaPessoa21" x="-4156203" y="-576784"/>
	<facility id="trabalho21" x="-4156137" y="-580114"/>
	<facility id="loja21" x="-4161290" y="-572348"/>

	<facility id="casaPessoa22" x="-4162394" y="-587287"/>
	<facility id="trabalho22" x="-4162588" y="-580048"/>
	<facility id="loja22" x="-4154705" y="-583382"/>

	<facility id="casaPessoa23" x="-4162485" y="-584193"/>
	<facility id="trabalho23" x="-4164099" y="-586401"/>

	<facility id="casaPessoa24" x="-4155380" y="-581295"/>
	<facility id="trabalho24" x="-4156439" y="-581455"/>

	<facility id="casaPessoa25" x="-4150870" y="-582369"/>
	<facility id="trabalho25" x="-4161238" y="-578990"/>
	<facility id="loja25" x="-4158648" y="-578353"/>

	<facility id="casaPessoa26" x="-4163920" y="-586720"/>
	<facility id="trabalho26" x="-4159986" y="-579504"/>

	<facility id="casaPessoa27" x="-4152352" y="-578853"/>
	<facility id="trabalho27" x="-4159755" y="-577135"/>
	<facility id="loja27" x="-4153025" y="-579729"/>

	<facility id="casaPessoa28" x="-4152370" y="-580660"/>
	<facility id="trabalho28" x="-4156210" y="-580100"/>
	<facility id="loja28" x="-4155944" y="-570446"/>

	<facility id="casaPessoa29" x="-4152516" y="-580082"/>
	<facility id="trabalho29" x="-4159189" y="-575977"/>

	<facility id="casaPessoa30" x="-4159161" y="-574899"/>
	<facility id="loja30" x="-4150912" y="-582509"/>

	<facility id="casaPessoa31" x="-4156631" y="-583475"/>
	<facility id="trabalho31" x="-4158229" y="-576193"/>

	<facility id="casaPessoa32" x="-4153890" y="-579864"/>
	<facility id="trabalho32" x="-4157848" y="-576703"/>
	<facility id="loja32" x="-4159419" y="-576859"/>

	<facility id="casaPessoa33" x="-4153921" y="-579770"/>
	<facility id="trabalho33" x="-4161773" y="-572140"/>
	<facility id="loja33" x="-4158895" y="-582112"/>

	<facility id="casaPessoa34" x="-4160056" y="-579828"/>
	<facility id="trabalho34" x="-4160273" y="-578284"/>
	<facility id="loja34" x="-4158325" y="-575794"/>

	<facility id="casaPessoa35" x="-4158494" y="-575876"/>
	<facility id="trabalho35" x="-4152847" y="-579518"/>

	<facility id="casaPessoa36" x="-4152463" y="-579079"/>
	<facility id="trabalho36" x="-4160349" y="-578032"/>
	<facility id="loja36" x="-4156655" y="-576221"/>

	<facility id="casaPessoa37" x="-4158684" y="-577702"/>
	<facility id="trabalho37" x="-4163366" y="-584932"/>

	<facility id="casaPessoa38" x="-4158935" y="-574716"/>
	<facility id="trabalho38" x="-4158927" y="-578004"/>
	<facility id="loja38" x="-4154862" y="-580153"/>

	<facility id="casaPessoa39" x="-4150774" y="-582526"/>
	<facility id="trabalho39" x="-4155221" y="-581141"/>
	<facility id="loja39" x="-4156263" y="-580768"/>

	<facility id="casaPessoa40" x="-4155060" y="-584372"/>
	<facility id="trabalho40" x="-4161465" y="-582382"/>
	<facility id="loja40" x="-4152575" y="-577698"/>

	<facility id="casaPessoa41" x="-4156816" y="-577678"/>
	<facility id="loja41" x="-4153710" y="-583494"/>

	<facility id="casaPessoa42" x="-4151732" y="-579228"/>
	<facility id="trabalho42" x="-4152464" y="-584816"/>

	<facility id="casaPessoa43" x="-4155293" y="-583429"/>
	<facility id="loja43" x="-4159326" y="-572793"/>

	<facility id="casaPessoa44" x="-4156489" y="-577543"/>
	<facility id="trabalho44" x="-4156174" y="-580393"/>

	<facility id="casaPessoa45" x="-4159178" y="-573114"/>
	<facility id="trabalho45" x="-4156060" y="-584395"/>
	<facility id="loja45" x="-4163012" y="-584798"/>

	<facility id="casaPessoa46" x="-4161018" y="-571718"/>
	<facility id="trabalho46" x="-4154650" y="-584557"/>

	<facility id="casaPessoa47" x="-4151717" y="-581740"/>
	<facility id="trabalho47" x="-4155174" y="-581877"/>
	<facility id="loja47" x="-4159371" y="-574771"/>

	<facility id="casaPessoa48" x="-4159766" y="-572936"/>
	<facility id="trabalho48" x="-4156257" y="-583605"/>

	<facility id="casaPessoa49" x="-4158754" y="-573962"/>
	<facility id="trabalho49" x="-4156723" y="-579268"/>
	<facility id="loja49" x="-4159540" y="-574051"/>

	<facility id="casaPessoa50" x="-4155573" y="-581079"/>
	<facility id="trabalho50" x="-4157569" y="-581684"/>
	<facility id="loja50" x="-4157147" y="-573346"/>

	<facility id="casaPessoa51" x="-4163996" y="-577230"/>
	<facility id="trabalho51" x="-4160480" y="-570920"/>
	<facility id="loja51" x="-4150061" y="-579308"/>

	<facility id="casaPessoa52" x="-4153071" y="-577448"/>
	<facility id="trabalho52" x="-4162598" y="-585100"/>

	<facility id="casaPessoa53" x="-4156988" y="-577819"/>
	<facility id="trabalho53" x="-4159949" y="-578817"/>
	<facility id="loja53" x="-4161464" y="-572140"/>

	<facility id="casaPessoa54" x="-4152362" y="-581274"/>
	<facility id="trabalho54" x="-4151556" y="-581970"/>
	<facility id="loja54" x="-4151233" y="-581656"/>

	<facility id="casaPessoa55" x="-4163537" y="-586639"/>
	<facility id="trabalho55" x="-4161036" y="-578548"/>

	<facility id="casaPessoa56" x="-4162801" y="-586871"/>
	<facility id="trabalho56" x="-4149571" y="-579702"/>
	<facility id="loja56" x="-4158890" y="-580781"/>

	<facility id="casaPessoa57" x="-4152547" y="-578262"/>
	<facility id="trabalho57" x="-4154560" y="-584122"/>

	<facility id="casaPessoa58" x="-4157971" y="-572882"/>
	<facility id="trabalho58" x="-4162146" y="-584375"/>
	<facility id="loja58" x="-4159822" y="-579383"/>

	<facility id="casaPessoa59" x="-4159851" y="-579779"/>
	<facility id="trabalho59" x="-4151895" y="-579092"/>
	<facility id="loja59" x="-4153109" y="-584846"/>

	<facility id="casaPessoa60" x="-4154028" y="-580542"/>
	<facility id="trabalho60" x="-4153992" y="-581961"/>

	<facility id="casaPessoa61" x="-4151421" y="-578408"/>
	<facility id="trabalho61" x="-4152972" y="-579401"/>
	<facility id="loja61" x="-4154730" y="-582987"/>

	<facility id="casaPessoa62" x="-4158750" y="-574421"/>
	<facility id="trabalho62" x="-4162923" y="-586933"/>
	<facility id="loja62" x="-4155950" y="-580401"/>

	<facility id="casaPessoa63" x="-4153846" y="-579718"/>
	<facility id="loja63" x="-4160602" y="-578107"/>

	<facility id="casaPessoa64" x="-4157430" y="-577369"/>
	<facility id="trabalho64" x="-4151587" y="-580597"/>
	<facility id="loja64" x="-4159178" y="-572814"/>

	<facility id="casaPessoa65" x="-4155393" y="-584494"/>
	<facility id="trabalho65" x="-4150684" y="-582725"/>
	<facility id="loja65" x="-4158987" y="-574284"/>

	<facility id="casaPessoa66" x="-4159662" y="-578323"/>
	<facility id="trabalho66" x="-4156939" y="-581003"/>
	<facility id="loja66" x="-4150759" y="-578247"/>

	<facility id="casaPessoa67" x="-4152175" y="-580883"/>
	<facility id="trabalho67" x="-4155884" y="-580534"/>
	<facility id="loja67" x="-4157317" y="-574027"/>

	<facility id="casaPessoa68" x="-4155790" y="-579895"/>
	<facility id="trabalho68" x="-4149984" y="-579194"/>
	<facility id="loja68" x="-4152583" y="-578759"/>

	<facility id="casaPessoa69" x="-4158090" y="-583786"/>
	<facility id="trabalho69" x="-4153879" y="-583418"/>
	<facility id="loja69" x="-4161414" y="-572333"/>

	<facility id="casaPessoa70" x="-4152070" y="-579989"/>
	<facility id="trabalho70" x="-4158076" y="-582694"/>

	<facility id="casaPessoa71" x="-4157347" y="-579252"/>
	<facility id="trabalho71" x="-4160667" y="-578296"/>
	<facility id="loja71" x="-4159162" y="-578637"/>

	<facility id="casaPessoa72" x="-4155441" y="-570677"/>
	<facility id="trabalho72" x="-4157799" y="-579035"/>

	<facility id="casaPessoa73" x="-4158723" y="-574667"/>
	<facility id="trabalho73" x="-4156636" y="-581645"/>

	<facility id="casaPessoa74" x="-4159653" y="-577372"/>
	<facility id="trabalho74" x="-4155200" y="-583196"/>
	<facility id="loja74" x="-4159776" y="-577883"/>

	<facility id="casaPessoa75" x="-4154868" y="-571280"/>
	<facility id="trabalho75" x="-4152071" y="-579965"/>
	<facility id="loja75" x="-4154381" y="-583639"/>

	<facility id="casaPessoa76" x="-4161358" y="-584672"/>
	<facility id="loja76" x="-4151063" y="-578770"/>

	<facility id="casaPessoa77" x="-4151794" y="-580155"/>
	<facility id="trabalho77" x="-4153407" y="-580388"/>
	<facility id="loja77" x="-4159282" y="-577022"/>

	<facility id="casaPessoa78" x="-4156189" y="-576203"/>
	<facility id="trabalho78" x="-4160467" y="-578368"/>
	<facility id="loja78" x="-4156367" y="-582071"/>

	<facility id="casaPessoa79" x="-4154175" y="-583982"/>
	<facility id="trabalho79" x="-4152358" y="-580847"/>
	<facility id="loja79" x="-4156032" y="-576663"/>

	<facility id="casaPessoa80" x="-4160706" y="-579938"/>
	<facility id="trabalho80" x="-4158683" y="-577597"/>
	<facility id="loja80" x="-4160867" y="-578256"/>

	<facility id="casaPessoa81" x="-4156149" y="-580742"/>
	<facility id="trabalho81" x="-4155777" y="-584471"/>

	<facility id="casaPessoa82" x="-4153359" y="-578082"/>
	<facility id="trabalho82" x="-4158543" y="-573045"/>

	<facility id="casaPessoa83" x="-4155799" y="-580207"/>
	<facility id="trabalho83" x="-4155281" y="-570760"/>
	<facility id="loja83" x="-4159352" y="-576057"/>

	<facility id="casaPessoa84" x="-4159407" y="-573726"/>
	<facility id="trabalho84" x="-4156930" y="-573570"/>
	<facility id="loja84" x="-4159529" y="-573104"/>

	<facility id="casaPessoa85" x="-4160421" y="-577121"/>
	<facility id="trabalho85" x="-4154785" y="-581538"/>
	<facility id="loja85" x="-4153434" y="-578402"/>

	<facility id="casaPessoa86" x="-4163118" y="-584060"/>
	<facility id="trabalho86" x="-4159673" y="-573598"/>

	<facility id="casaPessoa87" x="-4156761" y="-578239"/>
	<facility id="trabalho87" x="-4159290" y="-580525"/>
	<facility id="loja87" x="-4155747" y="-582936"/>

	<facility id="casaPessoa88" x="-4155465" y="-580845"/>
	<facility id="trabalho88" x="-4156194" y="-575554"/>
	<facility id="loja88" x="-4158685" y="-582756"/>

	<facility id="casaPessoa89" x="-4158759" y="-572834"/>
	<facility id="trabalho89" x="-4150844" y="-578932"/>
	<facility id="loja89" x="-4158168" y="-583091"/>

	<facility id="casaPessoa90" x="-4162758" y="-587047"/>
	<facility id="trabalho90" x="-4156731" y="-570194"/>
	<facility id="loja90" x="-4153086" y="-580516"/>

	<facility id="casaPessoa91" x="-4155654" y="-575908"/>
	<facility id="trabalho91" x="-4157403" y="-578416"/>
	<facility id="loja91" x="-4152729" y="-584983"/>

	<facility id="casaPessoa92" x="-4160640" y="-579316"/>
	<facility id="loja92" x="-4156012" y="-570274"/>

	<facility id="casaPessoa93" x="-4152612" y="-578275"/>
	<facility id="trabalho93" x="-4158980" y="-574733"/>

	<facility id="casaPessoa94" x="-4153536" y="-580890"/>
	<facility id="trabalho94" x="-4155757" y="-576109"/>
	<facility id="loja94" x="-4159863" y="-580250"/>

	<facility id="casaPessoa95" x="-4154983" y="-582730"/>
	<facility id="trabalho95" x="-4161810" y="-585286"/>
	<facility id="loja95" x="-4150419" y="-574727"/>

	<facility id="casaPessoa96" x="-4154875" y="-585732"/>
	<facility id="trabalho96" x="-4159867" y="-573064"/>

	<facility id="casaPessoa97" x="-4157264" y="-579136"/>
	<facility id="trabalho97" x="-4156273" y="-580179"/>
	<facility id="loja97" x="-4154818" y="-570959"/>

	<facility id="casaPessoa98" x="-4155355" y="-570474"/>
	<facility id="trabalho98" x="-4158687" y="-574444"/>
	<facility id="loja98" x="-4152999" y="-583686"/>

	<facility id="casaPessoa99" x="-4151868" y="-578224"/>
	<facility id="loja99" x="-4159317" y="-574050"/>

	<facility id="casaPessoa100" x="-4156476" y="-581555"/>
	<facility id="trabalho100" x="-4157065" y="-581969"/>
	<facility id="loja100" x="-4158477" y="-572826"/>

	<facility id="casaPessoa101" x="-4153204" y="-579993"/>
	<facility id="trabalho101" x="-4160519" y="-579096"/>
	<facility id="loja101" x="-4154781" y="-583697"/>

	<facility id="casaPessoa102" x="-4153463" y="-577907"/>
	<facility id="trabalho102" x="-4157826" y="-579440"/>
	<facility id="loja102" x="-4155159" y="-580696"/>

	<facility id="casaPessoa103" x="-4152828" y="-580008"/>
	<facility id="loja103" x="-4153365" y="-581552"/>

	<facility id="casaPessoa104" x="-4154589" y="-581995"/>
	<facility id="trabalho104" x="-4158677" y="-578957"/>

	<facility id="casaPessoa105" x="-4155278" y="-575562"/>
	<facility id="trabalho105" x="-4152817" y="-584210"/>
	<facility id="loja105" x="-4150585" y="-574503"/>

	<facility id="casaPessoa106" x="-4154552" y="-581898"/>
	<facility id="trabalho106" x="-4160551" y="-580377"/>
	<facility id="loja106" x="-4163536" y="-584659"/>

	<facility id="casaPessoa107" x="-4154392" y="-581556"/>
	<facility id="trabalho107" x="-4160250" y="-576470"/>
	<facility id="loja107" x="-4155605" y="-572925"/>

	<facility id="casaPessoa108" x="-4158325" y="-572837"/>
	<facility id="trabalho108" x="-4151259" y="-582499"/>
	<facility id="loja108" x="-4151088" y="-579102"/>

	<facility id="casaPessoa109" x="-4163798" y="-586545"/>
	<facility id="trabalho109" x="-4155223" y="-580394"/>
	<facility id="loja109" x="-4162969" y="-584082"/>

	<facility id="casaPessoa110" x="-4159989" y="-575396"/>
	<facility id="trabalho110" x="-4162115" y="-584579"/>
	<facility id="loja110" x="-4150325" y="-579131"/>

	<facility id="casaPessoa111" x="-4156563" y="-578378"/>
	<facility id="trabalho111" x="-4153045" y="-577408"/>
	<facility id="loja111" x="-4158186" y="-573355"/>

	<facility id="casaPessoa112" x="-4155997" y="-578149"/>
	<facility id="loja112" x="-4157215" y="-573090"/>

	<facility id="casaPessoa113" x="-4162219" y="-587231"/>
	<facility id="trabalho113" x="-4156057" y="-582352"/>
	<facility id="loja113" x="-4158050" y="-579391"/>

	<facility id="casaPessoa114" x="-4159516" y="-577298"/>
	<facility id="trabalho114" x="-4158577" y="-579741"/>

	<facility id="casaPessoa115" x="-4161629" y="-577815"/>
	<facility id="trabalho115" x="-4157262" y="-575492"/>
	<facility id="loja115" x="-4159797" y="-573157"/>

	<facility id="casaPessoa116" x="-4155059" y="-583546"/>
	<facility id="trabalho116" x="-4156055" y="-575665"/>
	<facility id="loja116" x="-4158677" y="-577323"/>

	<facility id="casaPessoa117" x="-4157852" y="-579403"/>
	<facility id="trabalho117" x="-4159783" y="-580054"/>
	<facility id="loja117" x="-4160344" y="-571294"/>

	<facility id="casaPessoa118" x="-4151524" y="-580578"/>
	<facility id="trabalho118" x="-4154674" y="-573967"/>
	<facility id="loja118" x="-4163247" y="-584534"/>

	<facility id="casaPessoa119" x="-4158332" y="-573460"/>
	<facility id="trabalho119" x="-4159246" y="-578086"/>
	<facility id="loja119" x="-4151147" y="-579015"/>

	<facility id="casaPessoa120" x="-4155974" y="-572325"/>
	<facility id="trabalho120" x="-4160271" y="-576651"/>
	<facility id="loja120" x="-4161408" y="-572363"/>

	<facility id="casaPessoa121" x="-4152978" y="-579371"/>
	<facility id="trabalho121" x="-4156659" y="-581710"/>
	<facility id="loja121" x="-4151660" y="-580479"/>

	<facility id="casaPessoa122" x="-4152288" y="-578499"/>
	<facility id="trabalho122" x="-4155914" y="-576703"/>
	<facility id="loja122" x="-4161889" y="-585328"/>

	<facility id="casaPessoa123" x="-4156690" y="-581618"/>
	<facility id="trabalho123" x="-4160613" y="-576693"/>
	<facility id="loja123" x="-4163452" y="-586509"/>

	<facility id="casaPessoa124" x="-4162152" y="-584955"/>
	<facility id="trabalho124" x="-4155974" y="-581168"/>

	<facility id="casaPessoa125" x="-4155550" y="-582027"/>
	<facility id="loja125" x="-4157081" y="-578135"/>

	<facility id="casaPessoa126" x="-4155826" y="-577507"/>
	<facility id="trabalho126" x="-4151461" y="-582263"/>
	<facility id="loja126" x="-4154966" y="-582215"/>

	<facility id="casaPessoa127" x="-4156814" y="-577225"/>
	<facility id="trabalho127" x="-4158628" y="-575931"/>
	<facility id="loja127" x="-4155207" y="-581371"/>

	<facility id="casaPessoa128" x="-4153326" y="-579937"/>
	<facility id="trabalho128" x="-4158922" y="-574537"/>

	<facility id="casaPessoa129" x="-4158272" y="-580234"/>
	<facility id="trabalho129" x="-4151311" y="-577852"/>

	<facility id="casaPessoa130" x="-4159258" y="-578922"/>
	<facility id="trabalho130" x="-4161943" y="-584995"/>

	<facility id="casaPessoa131" x="-4161477" y="-571976"/>
	<facility id="loja131" x="-4162008" y="-585483"/>

	<facility id="casaPessoa132" x="-4155466" y="-576713"/>
	<facility id="trabalho132" x="-4158401" y="-580590"/>
	<facility id="loja132" x="-4156291" y="-580253"/>

	<facility id="casaPessoa133" x="-4151230" y="-578246"/>
	<facility id="trabalho133" x="-4159241" y="-578698"/>
	<facility id="loja133" x="-4159339" y="-577770"/>

	<facility id="casaPessoa134" x="-4154157" y="-579713"/>
	<facility id="trabalho134" x="-4153378" y="-578111"/>

	<facility id="casaPessoa135" x="-4156539" y="-577050"/>
	<facility id="trabalho135" x="-4160675" y="-575690"/>
	<facility id="loja135" x="-4162808" y="-584081"/>

	<facility id="casaPessoa136" x="-4157205" y="-573650"/>
	<facility id="trabalho136" x="-4158435" y="-575457"/>
	<facility id="loja136" x="-4156698" y="-578384"/>

	<facility id="casaPessoa137" x="-4155900" y="-575499"/>
	<facility id="trabalho137" x="-4151860" y="-579209"/>

	<facility id="casaPessoa138" x="-4153917" y="-580595"/>
	<facility id="trabalho138" x="-4162364" y="-584195"/>

	<facility id="casaPessoa139" x="-4153743" y="-583452"/>
	<facility id="loja139" x="-4156342" y="-580573"/>

	<facility id="casaPessoa140" x="-4153728" y="-579883"/>
	<facility id="trabalho140" x="-4149293" y="-579891"/>
	<facility id="loja140" x="-4160139" y="-579470"/>

	<facility id="casaPessoa141" x="-4158046" y="-578474"/>
	<facility id="trabalho141" x="-4158355" y="-578602"/>
	<facility id="loja141" x="-4153952" y="-578897"/>

	<facility id="casaPessoa142" x="-4159897" y="-579753"/>
	<facility id="trabalho142" x="-4161277" y="-572384"/>
	<facility id="loja142" x="-4156828" y="-574279"/>

	<facility id="casaPessoa143" x="-4157772" y="-572878"/>
	<facility id="trabalho143" x="-4158470" y="-580170"/>
	<facility id="loja143" x="-4158812" y="-575098"/>

	<facility id="casaPessoa144" x="-4151911" y="-579058"/>
	<facility id="trabalho144" x="-4156897" y="-583953"/>

	<facility id="casaPessoa145" x="-4159592" y="-578303"/>
	<facility id="trabalho145" x="-4161003" y="-577938"/>
	<facility id="loja145" x="-4153406" y="-579732"/>

	<facility id="casaPessoa146" x="-4157385" y="-577689"/>
	<facility id="trabalho146" x="-4152232" y="-580849"/>
	<facility id="loja146" x="-4156913" y="-578345"/>

	<facility id="casaPessoa147" x="-4151101" y="-579534"/>
	<facility id="trabalho147" x="-4156664" y="-573446"/>
	<facility id="loja147" x="-4156422" y="-581042"/>

	<facility id="casaPessoa148" x="-4155526" y="-581941"/>
	<facility id="trabalho148" x="-4150902" y="-582534"/>
	<facility id="loja148" x="-4154645" y="-580240"/>

	<facility id="casaPessoa149" x="-4152515" y="-578243"/>
	<facility id="trabalho149" x="-4156647" y="-581826"/>
	<facility id="loja149" x="-4157392" y="-578888"/>

	<facility id="casaPessoa150" x="-4159258" y="-581143"/>
	<facility id="loja150" x="-4152307" y="-580294"/>

	<facility id="casaPessoa151" x="-4150431" y="-578837"/>
	<facility id="trabalho151" x="-4155612" y="-580992"/>
	<facility id="loja151" x="-4156535" y="-582297"/>

	<facility id="casaPessoa152" x="-4159976" y="-574587"/>
	<facility id="trabalho152" x="-4156506" y="-576878"/>
	<facility id="loja152" x="-4156353" y="-583732"/>

	<facility id="casaPessoa153" x="-4151222" y="-580936"/>
	<facility id="loja153" x="-4159115" y="-576402"/>

	<facility id="casaPessoa154" x="-4159895" y="-574242"/>
	<facility id="trabalho154" x="-4150853" y="-579192"/>
	<facility id="loja154" x="-4152439" y="-584794"/>

	<facility id="casaPessoa155" x="-4157502" y="-577132"/>
	<facility id="trabalho155" x="-4162546" y="-580065"/>
	<facility id="loja155" x="-4152729" y="-579812"/>

	<facility id="casaPessoa156" x="-4162667" y="-579877"/>
	<facility id="trabalho156" x="-4162087" y="-585183"/>
	<facility id="loja156" x="-4158055" y="-582691"/>

	<facility id="casaPessoa157" x="-4157527" y="-575423"/>
	<facility id="trabalho157" x="-4158887" y="-584516"/>

	<facility id="casaPessoa158" x="-4152926" y="-578667"/>
	<facility id="loja158" x="-4156220" y="-582496"/>

	<facility id="casaPessoa159" x="-4159303" y="-573959"/>
	<facility id="trabalho159" x="-4159063" y="-581280"/>
	<facility id="loja159" x="-4156200" y="-575576"/>

	<facility id="casaPessoa160" x="-4154621" y="-579226"/>
	<facility id="trabalho160" x="-4154568" y="-581638"/>
	<facility id="loja160" x="-4153524" y="-586845"/>

	<facility id="casaPessoa161" x="-4156006" y="-584512"/>
	<facility id="trabalho161" x="-4155586" y="-572893"/>
	<facility id="loja161" x="-4156329" y="-576868"/>

	<facility id="casaPessoa162" x="-4159309" y="-581007"/>
	<facility id="trabalho162" x="-4149796" y="-579327"/>
	<facility id="loja162" x="-4150089" y="-574222"/>

	<facility id="casaPessoa163" x="-4159813" y="-575448"/>
	<facility id="trabalho163" x="-4157369" y="-578599"/>

	<facility id="casaPessoa164" x="-4151941" y="-580810"/>
	<facility id="trabalho164" x="-4156633" y="-581582"/>

	<facility id="casaPessoa165" x="-4152097" y="-579283"/>
	<facility id="loja165" x="-4152812" y="-580145"/>

	<facility id="casaPessoa166" x="-4154272" y="-578906"/>
	<facility id="trabalho166" x="-4151372" y="-580705"/>
	<facility id="loja166" x="-4159331" y="-581062"/>

	<facility id="casaPessoa167" x="-4158176" y="-579060"/>
	<facility id="trabalho167" x="-4161136" y="-579331"/>

	<facility id="casaPessoa168" x="-4157103" y="-582220"/>
	<facility id="trabalho168" x="-4159389" y="-573110"/>
	<facility id="loja168" x="-4152931" y="-583870"/>

	<facility id="casaPessoa169" x="-4150738" y="-579073"/>
	<facility id="trabalho169" x="-4162392" y="-587298"/>
	<facility id="loja169" x="-4158618" y="-574649"/>

	<facility id="casaPessoa170" x="-4156496" y="-573150"/>
	<facility id="trabalho170" x="-4152174" y="-580062"/>
	<facility id="loja170" x="-4157472" y="-578543"/>

	<facility id="casaPessoa171" x="-4156375" y="-580566"/>
	<facility id="trabalho171" x="-4151986" y="-580133"/>
	<facility id="loja171" x="-4161161" y="-582628"/>

	<facility id="casaPessoa172" x="-4156117" y="-581273"/>
	<facility id="trabalho172" x="-4152971" y="-584092"/>
	<facility id="loja172" x="-4154985" y="-584994"/>

	<facility id="casaPessoa173" x="-4156638" y="-578449"/>
	<facility id="loja173" x="-4160870" y="-575976"/>

	<facility id="casaPessoa174" x="-4159313" y="-574298"/>
	<facility id="trabalho174" x="-4152640" y="-578382"/>
	<facility id="loja174" x="-4157403" y="-575370"/>

	<facility id="casaPessoa175" x="-4159787" y="-575663"/>
	<facility id="trabalho175" x="-4160698" y="-576530"/>

	<facility id="casaPessoa176" x="-4158609" y="-582869"/>
	<facility id="trabalho176" x="-4153417" y="-579917"/>
	<facility id="loja176" x="-4151599" y="-581592"/>

	<facility id="casaPessoa177" x="-4151693" y="-578794"/>
	<facility id="trabalho177" x="-4156427" y="-583869"/>

	<facility id="casaPessoa178" x="-4157690" y="-577129"/>
	<facility id="trabalho178" x="-4158142" y="-576520"/>
	<facility id="loja178" x="-4161125" y="-578439"/>

	<facility id="casaPessoa179" x="-4159707" y="-579984"/>
	<facility id="trabalho179" x="-4151752" y="-579168"/>

	<facility id="casaPessoa180" x="-4156310" y="-580979"/>
	<facility id="trabalho180" x="-4162265" y="-584280"/>

	<facility id="casaPessoa181" x="-4156809" y="-578473"/>
	<facility id="trabalho181" x="-4156875" y="-577128"/>
	<facility id="loja181" x="-4151169" y="-584278"/>

	<facility id="casaPessoa182" x="-4153288" y="-580968"/>
	<facility id="trabalho182" x="-4153843" y="-575836"/>
	<facility id="loja182" x="-4160045" y="-579336"/>

	<facility id="casaPessoa183" x="-4154570" y="-584890"/>
	<facility id="trabalho183" x="-4157958" y="-573591"/>
	<facility id="loja183" x="-4158315" y="-579174"/>

	<facility id="casaPessoa184" x="-4156542" y="-577870"/>
	<facility id="trabalho184" x="-4155901" y="-569947"/>
	<facility id="loja184" x="-4157481" y="-576082"/>

	<facility id="casaPessoa185" x="-4163257" y="-584170"/>
	<facility id="trabalho185" x="-4157316" y="-577016"/>
	<facility id="loja185" x="-4158159" y="-578757"/>

	<facility id="casaPessoa186" x="-4161209" y="-572128"/>
	<facility id="trabalho186" x="-4152610" y="-584917"/>
	<facility id="loja186" x="-4154762" y="-583321"/>

	<facility id="casaPessoa187" x="-4150765" y="-581075"/>
	<facility id="trabalho187" x="-4159058" y="-578187"/>

	<facility id="casaPessoa188" x="-4159734" y="-573278"/>
	<facility id="trabalho188" x="-4157560" y="-583007"/>
	<facility id="loja188" x="-4160513" y="-577470"/>

	<facility id="casaPessoa189" x="-4156333" y="-576803"/>
	<facility id="loja189" x="-4152693" y="-580442"/>

	<facility id="casaPessoa190" x="-4160641" y="-577777"/>
	<facility id="trabalho190" x="-4155937" y="-570398"/>
	<facility id="loja190" x="-4151766" y="-578568"/>

	<facility id="casaPessoa191" x="-4154572" y="-580961"/>
	<facility id="trabalho191" x="-4159632" y="-573884"/>
	<facility id="loja191" x="-4156885" y="-580878"/>

	<facility id="casaPessoa192" x="-4160705" y="-577030"/>
	<facility id="trabalho192" x="-4156958" y="-582533"/>
	<facility id="loja192" x="-4155102" y="-581404"/>

	<facility id="casaPessoa193" x="-4161270" y="-578682"/>
	<facility id="trabalho193" x="-4156296" y="-580516"/>
	<facility id="loja193" x="-4163059" y="-584822"/>

	<facility id="casaPessoa194" x="-4155224" y="-581135"/>
	<facility id="trabalho194" x="-4157916" y="-580196"/>
	<facility id="loja194" x="-4156273" y="-582840"/>

	<facility id="casaPessoa195" x="-4151987" y="-579028"/>
	<facility id="trabalho195" x="-4159509" y="-580910"/>

	<facility id="casaPessoa196" x="-4153525" y="-580276"/>
	<facility id="trabalho196" x="-4160258" y="-574202"/>

	<facility id="casaPessoa197" x="-4151921" y="-580976"/>
	<facility id="trabalho197" x="-4152984" y="-580558"/>
	<facility id="loja197" x="-4158408" y="-578614"/>

	<facility id="casaPessoa198" x="-4162929" y="-584155"/>
	<facility id="loja198" x="-4156450" y="-582035"/>

	<facility id="casaPessoa199" x="-4162925" y="-584996"/>
	<facility id="trabalho199" x="-4155071" y="-581251"/>

	<facility id="casaPessoa200" x="-4154015" y="-579962"/>
	<facility id="trabalho200" x="-4155549" y="-582324"/>
	<facility id="loja200" x="-4159472" y="-573815"/>

	<facility id="casaPessoa201" x="-4150577" y="-574911"/>
	<facility id="trabalho201" x="-4150959" y="-578434"/>
	<facility id="loja201" x="-4156930" y="-579249"/>

	<facility id="casaPessoa202" x="-4151857" y="-578560"/>
	<facility id="trabalho202" x="-4160404" y="-580608"/>

	<facility id="casaPessoa203" x="-4151580" y="-578364"/>
	<facility id="trabalho203" x="-4159504" y="-581942"/>
	<facility id="loja203" x="-4152107" y="-580423"/>

	<facility id="casaPessoa204" x="-4154936" y="-583304"/>
	<facility id="trabalho204" x="-4154242" y="-583097"/>
	<facility id="loja204" x="-4160047" y="-578536"/>

	<facility id="casaPessoa205" x="-4163777" y="-586580"/>
	<facility id="trabalho205" x="-4155520" y="-571050"/>
	<facility id="loja205" x="-4158056" y="-573495"/>

	<facility id="casaPessoa206" x="-4160723" y="-577475"/>
	<facility id="loja206" x="-4160362" y="-579849"/>

	<facility id="casaPessoa207" x="-4158118" y="-576802"/>
	<facility id="trabalho207" x="-4161588" y="-578709"/>