<?xml version="1.0" encoding="utf-8"?>
<!DOCTYPE facilities SYSTEM "http://www.matsim.org/files/dtd/facilities_v1.dtd">

<facilities>
	<facility id="parada_Linha10_Volta0" x="-4157205.2329715514" y="-579013.5879012579"/>
	<facility id="parada_Linha10_Volta1" x="-4157240.521250132" y="-578854.0801504253"/>
	<facility id="parada_Linha10_Volta2" x="-4157040.480125177" y="-578523.3290690613"/>
	<facility id="parada_Linha10_Volta3" x="-4156920.8116725744" y="-578539.9839529201"/>
	<facility id="parada_Linha10_Volta4" x="-4156742.1438898505" y="-578612.7513104186"/>
	<facility id="parada_Linha10_Volta5" x="-4156707.634847705" y="-578589.2779610838"/>
	<facility id="parada_Linha10_Volta6" x="-4156523.9576878957" y="-578471.6877763364"/>
	<facility id="parada_Linha10_Volta7" x="-4156993.725939044" y="-578833.40117623"/>
	<facility id="parada_Linha10_Volta8" x="-4157079.4419469545" y="-578981.3956982144"/>
	<facility id="parada_Linha10_Volta9" x="-4157451.5830046763" y="-578833.5129544536"/>
	<facility id="parada_Linha10_Volta10" x="-4157587.0588249713" y="-578756.2742449164"/>
	<facility id="parada_Linha10_Volta11" x="-4157824.8372573056" y="-578649.9733518137"/>
	<facility id="parada_Linha10_Volta12" x="-4157901.7590254443" y="-578773.2645181881"/>
	<facility id="parada_Linha10_Volta13" x="-4157990.035381643" y="-578917.1231146074"/>
	<facility id="parada_Linha10_Volta14" x="-4158118.0527960556" y="-579149.0635836226"/>
	<facility id="parada_Linha10_Volta15" x="-4158238.0552071305" y="-579472.8872895484"/>
	<facility id="parada_Linha10_Volta16" x="-4158572.6815964547" y="-578645.9493463904"/>
	<facility id="parada_Linha10_Volta17" x="-4158954.841408348" y="-578700.6087730137"/>
	<facility id="parada_Linha10_Volta18" x="-4159647.9165580277" y="-578745.543548117"/>
	<facility id="parada_Linha10_Volta19" x="-4159562.089230626" y="-578559.5450631467"/>
	<facility id="parada_Linha10_Volta20" x="-4159386.3157546637" y="-578195.2621921853"/>
	<facility id="parada_Linha10_Volta21" x="-4159278.892446048" y="-577973.1612237006"/>
	<facility id="parada_Linha10_Volta22" x="-4159163.3428146048" y="-577748.2665415151"/>
	<facility id="parada_Linha10_Volta23" x="-4159064.2684677984" y="-577465.6961073726"/>
	<facility id="parada_Linha10_Volta24" x="-4159245.719237792" y="-577466.7020918808"/>
	<facility id="parada_Linha10_Volta25" x="-4159447.430155109" y="-577346.4311565846"/>
	<facility id="parada_Linha10_Volta26" x="-4159734.411802374" y="-577126.2330416244"/>
	<facility id="parada_Linha10_Volta27" x="-4159971.856276236" y="-576935.5442638587"/>
	<facility id="parada_Linha10_Volta28" x="-4160376.9479032326" y="-576605.1374935984"/>
	<facility id="parada_Linha10_Volta29" x="-4160643.2241252107" y="-576411.0633567738"/>
</facilities>