<?xml version="1.0" encoding="utf-8"?>
<!DOCTYPE facilities SYSTEM "http://www.matsim.org/files/dtd/facilities_v1.dtd">

<facilities>
	<facility id="paradaLINHA_2_ABOLICOES_SANTA_DELMIRA_REDENCAO_IDA0" x="-4157545.425335415" y="-573164.2705538222"/>
	<facility id="paradaLINHA_2_ABOLICOES_SANTA_DELMIRA_REDENCAO_IDA1" x="-4157688.3595615937" y="-573065.131276141"/>
	<facility id="paradaLINHA_2_ABOLICOES_SANTA_DELMIRA_REDENCAO_IDA2" x="-4157843.984209723" y="-573007.3690188295"/>
	<facility id="paradaLINHA_2_ABOLICOES_SANTA_DELMIRA_REDENCAO_IDA3" x="-4158007.401222207" y="-572900.1267168588"/>
	<facility id="paradaLINHA_2_ABOLICOES_SANTA_DELMIRA_REDENCAO_IDA4" x="-4158084.3229903453" y="-572813.7294404717"/>
	<facility id="paradaLINHA_2_ABOLICOES_SANTA_DELMIRA_REDENCAO_IDA5" x="-4158195.5311616478" y="-572830.5282817323"/>
	<facility id="paradaLINHA_2_ABOLICOES_SANTA_DELMIRA_REDENCAO_IDA6" x="-4158312.8619049434" y="-572998.4833816272"/>
	<facility id="paradaLINHA_2_ABOLICOES_SANTA_DELMIRA_REDENCAO_IDA7" x="-4158443.105709172" y="-573276.6099405785"/>
	<facility id="paradaLINHA_2_ABOLICOES_SANTA_DELMIRA_REDENCAO_IDA8" x="-4158545.8535991744" y="-573487.9215788961"/>
	<facility id="paradaLINHA_2_ABOLICOES_SANTA_DELMIRA_REDENCAO_IDA9" x="-4158634.575233336" y="-573672.0737121633"/>
	<facility id="paradaLINHA_2_ABOLICOES_SANTA_DELMIRA_REDENCAO_IDA10" x="-4158734.7627750505" y="-573874.9143293812"/>
	<facility id="paradaLINHA_2_ABOLICOES_SANTA_DELMIRA_REDENCAO_IDA11" x="-4158667.30316363" y="-573982.9516719796"/>
	<facility id="paradaLINHA_2_ABOLICOES_SANTA_DELMIRA_REDENCAO_IDA12" x="-4158513.236988372" y="-574087.6807652494"/>
	<facility id="paradaLINHA_2_ABOLICOES_SANTA_DELMIRA_REDENCAO_IDA13" x="-4158358.168937697" y="-574191.8511584335"/>
	<facility id="paradaLINHA_2_ABOLICOES_SANTA_DELMIRA_REDENCAO_IDA14" x="-4158229.9288843023" y="-574278.8089641423"/>
	<facility id="paradaLINHA_2_ABOLICOES_SANTA_DELMIRA_REDENCAO_IDA15" x="-4158080.8720861305" y="-574383.6837961168"/>
	<facility id="paradaLINHA_2_ABOLICOES_SANTA_DELMIRA_REDENCAO_IDA16" x="-4158137.4223874537" y="-574573.5833051716"/>
	<facility id="paradaLINHA_2_ABOLICOES_SANTA_DELMIRA_REDENCAO_IDA17" x="-4158277.2396678897" y="-574533.8150198538"/>
	<facility id="paradaLINHA_2_ABOLICOES_SANTA_DELMIRA_REDENCAO_IDA18" x="-4158382.9931841437" y="-574466.0815666293"/>
	<facility id="paradaLINHA_2_ABOLICOES_SANTA_DELMIRA_REDENCAO_IDA19" x="-4158482.624128404" y="-574396.8392666283"/>
	<facility id="paradaLINHA_2_ABOLICOES_SANTA_DELMIRA_REDENCAO_IDA20" x="-4158583.368267572" y="-574324.8921734851"/>
	<facility id="paradaLINHA_2_ABOLICOES_SANTA_DELMIRA_REDENCAO_IDA21" x="-4158677.989834746" y="-574266.000005613"/>
	<facility id="paradaLINHA_2_ABOLICOES_SANTA_DELMIRA_REDENCAO_IDA22" x="-4158770.1623731228" y="-574201.0946116456"/>
	<facility id="paradaLINHA_2_ABOLICOES_SANTA_DELMIRA_REDENCAO_IDA23" x="-4158872.464985161" y="-574128.6559252895"/>
	<facility id="paradaLINHA_2_ABOLICOES_SANTA_DELMIRA_REDENCAO_IDA24" x="-4158969.3129421524" y="-574063.583000768"/>
	<facility id="paradaLINHA_2_ABOLICOES_SANTA_DELMIRA_REDENCAO_IDA25" x="-4159148.5373223294" y="-574222.4093263546"/>
	<facility id="paradaLINHA_2_ABOLICOES_SANTA_DELMIRA_REDENCAO_IDA26" x="-4159227.9081192645" y="-574107.3971240865"/>
	<facility id="paradaLINHA_2_ABOLICOES_SANTA_DELMIRA_REDENCAO_IDA27" x="-4159312.84489074" y="-573976.8042913645"/>
	<facility id="paradaLINHA_2_ABOLICOES_SANTA_DELMIRA_REDENCAO_IDA28" x="-4159460.2318965504" y="-574004.4786853797"/>
	<facility id="paradaLINHA_2_ABOLICOES_SANTA_DELMIRA_REDENCAO_IDA29" x="-4159484.3882260523" y="-574135.8539645725"/>
	<facility id="paradaLINHA_2_ABOLICOES_SANTA_DELMIRA_REDENCAO_IDA30" x="-4159422.38326968" y="-574237.2748626863"/>
	<facility id="paradaLINHA_2_ABOLICOES_SANTA_DELMIRA_REDENCAO_IDA31" x="-4159356.5934506217" y="-574350.3424573853"/>
	<facility id="paradaLINHA_2_ABOLICOES_SANTA_DELMIRA_REDENCAO_IDA32" x="-4159302.158219624" y="-574445.292103847"/>
	<facility id="paradaLINHA_2_ABOLICOES_SANTA_DELMIRA_REDENCAO_IDA33" x="-4159185.6067127627" y="-574634.2864278236"/>
	<facility id="paradaLINHA_2_ABOLICOES_SANTA_DELMIRA_REDENCAO_IDA34" x="-4159064.825065252" y="-574806.9625617871"/>
	<facility id="paradaLINHA_2_ABOLICOES_SANTA_DELMIRA_REDENCAO_IDA35" x="-4158909.534375596" y="-575031.5572894922"/>
	<facility id="paradaLINHA_2_ABOLICOES_SANTA_DELMIRA_REDENCAO_IDA36" x="-4158821.9259363413" y="-575142.6924871511"/>
	<facility id="paradaLINHA_2_ABOLICOES_SANTA_DELMIRA_REDENCAO_IDA37" x="-4158734.4288165784" y="-575265.6981060888"/>
	<facility id="paradaLINHA_2_ABOLICOES_SANTA_DELMIRA_REDENCAO_IDA38" x="-4158646.820377324" y="-575379.7621169621"/>
	<facility id="paradaLINHA_2_ABOLICOES_SANTA_DELMIRA_REDENCAO_IDA39" x="-4158575.241944744" y="-575472.1200095619"/>
	<facility id="paradaLINHA_2_ABOLICOES_SANTA_DELMIRA_REDENCAO_IDA40" x="-4158664.4088568687" y="-575584.8989620985"/>
	<facility id="paradaLINHA_2_ABOLICOES_SANTA_DELMIRA_REDENCAO_IDA41" x="-4158793.4281466985" y="-575670.7519203146"/>
	<facility id="paradaLINHA_2_ABOLICOES_SANTA_DELMIRA_REDENCAO_IDA42" x="-4158806.0072491583" y="-575894.3657769776"/>
	<facility id="paradaLINHA_2_ABOLICOES_SANTA_DELMIRA_REDENCAO_IDA43" x="-4158712.832835364" y="-575992.8383630038"/>
	<facility id="paradaLINHA_2_ABOLICOES_SANTA_DELMIRA_REDENCAO_IDA44" x="-4158298.3903711406" y="-576534.4959216001"/>
	<facility id="paradaLINHA_2_ABOLICOES_SANTA_DELMIRA_REDENCAO_IDA45" x="-4158214.2328361007" y="-576676.7515769599"/>
	<facility id="paradaLINHA_2_ABOLICOES_SANTA_DELMIRA_REDENCAO_IDA46" x="-4158154.0089915814" y="-576768.775836412"/>
	<facility id="paradaLINHA_2_ABOLICOES_SANTA_DELMIRA_REDENCAO_IDA47" x="-4158403.649798" y="-577108.595663"/>
	<facility id="paradaLINHA_2_ABOLICOES_SANTA_DELMIRA_REDENCAO_IDA48" x="-4158174.711941" y="-577347.759958"/>
	<facility id="paradaLINHA_2_ABOLICOES_SANTA_DELMIRA_REDENCAO_IDA49" x="-4158011.238219" y="-577526.685307"/>
	<facility id="paradaLINHA_2_ABOLICOES_SANTA_DELMIRA_REDENCAO_IDA50" x="-4157831.491769" y="-577720.017244"/>
	<facility id="paradaLINHA_2_ABOLICOES_SANTA_DELMIRA_REDENCAO_IDA51" x="-4157538.284106" y="-578016.583956"/>
	<facility id="paradaLINHA_2_ABOLICOES_SANTA_DELMIRA_REDENCAO_IDA52" x="-4157185.1954632085" y="-578432.006722123"/>
	<facility id="paradaLINHA_2_ABOLICOES_SANTA_DELMIRA_REDENCAO_IDA53" x="-4157267.5718863956" y="-578558.8743964208"/>
	<facility id="paradaLINHA_2_ABOLICOES_SANTA_DELMIRA_REDENCAO_IDA54" x="-4157148.7939897184" y="-578636.0793562856"/>
	<facility id="paradaLINHA_2_ABOLICOES_SANTA_DELMIRA_REDENCAO_IDA55" x="-4156993.725939044" y="-578833.40117623"/>
	<facility id="paradaLINHA_2_ABOLICOES_SANTA_DELMIRA_REDENCAO_IDA56" x="-4157079.4419469545" y="-578981.3956982144"/>
	<facility id="paradaLINHA_2_ABOLICOES_SANTA_DELMIRA_REDENCAO_IDA57" x="-4157316.107184381" y="-579363.008384986"/>
	<facility id="paradaLINHA_2_ABOLICOES_SANTA_DELMIRA_REDENCAO_IDA58" x="-4157254.2135475" y="-579402.5781843684"/>
</facilities>