<?xml version="1.0" encoding="utf-8"?>
<!DOCTYPE facilities SYSTEM "http://www.matsim.org/files/dtd/facilities_v1.dtd">

<facilities>
	<facility id="parada_Linha10_Ida0" x="-4160643.2241252107" y="-576411.0633567738"/>
	<facility id="parada_Linha10_Ida1" x="-4160047.219571503" y="-576894.1874455793"/>
	<facility id="parada_Linha10_Ida2" x="-4159813.1146823647" y="-577081.0757464801"/>
	<facility id="parada_Linha10_Ida3" x="-4159960.390368684" y="-577741.3363986727"/>
	<facility id="parada_Linha10_Ida4" x="-4160150.7466979413" y="-577933.0333427016"/>
	<facility id="parada_Linha10_Ida5" x="-4160435.724594372" y="-578069.736496017"/>
	<facility id="parada_Linha10_Ida6" x="-4160925.5303538623" y="-578429.8829480198"/>
	<facility id="parada_Linha10_Ida7" x="-4161258.375631334" y="-578382.8246014084"/>
	<facility id="parada_Linha10_Ida8" x="-4161403.424927837" y="-578677.8060622767"/>
	<facility id="parada_Linha10_Ida9" x="-4161517.7500448823" y="-578902.9272649165"/>
	<facility id="parada_Linha10_Ida10" x="-4160260.6190353534" y="-578872.8588998164"/>
	<facility id="parada_Linha10_Ida11" x="-4160081.060696704" y="-579132.1849984243"/>
	<facility id="parada_Linha10_Ida12" x="-4160146.8505157633" y="-579249.4409486735"/>
	<facility id="parada_Linha10_Ida13" x="-4160296.3525918983" y="-579511.6746955931"/>
	<facility id="parada_Linha10_Ida14" x="-4160119.5772405188" y="-579627.142806107"/>
	<facility id="parada_Linha10_Ida15" x="-4159960.390368684" y="-579701.3644215043"/>
	<facility id="parada_Linha10_Ida16" x="-4159843.1709448793" y="-579497.0316089557"/>
	<facility id="parada_Linha10_Ida17" x="-4159837.2710118666" y="-579380.8930373193"/>
	<facility id="parada_Linha10_Ida18" x="-4159940.352860342" y="-579111.282385279"/>
	<facility id="parada_Linha10_Ida19" x="-4159990.4466311983" y="-578975.1361048856"/>
	<facility id="parada_Linha10_Ida20" x="-4159988.8881583274" y="-578940.7083515222"/>
	<facility id="parada_Linha10_Ida21" x="-4159893.3760352265" y="-578826.5827049885"/>
	<facility id="parada_Linha10_Ida22" x="-4159618.6395319486" y="-578792.26680236"/>
	<facility id="parada_Linha10_Ida23" x="-4159189.2802559594" y="-578743.4197645684"/>
	<facility id="parada_Linha10_Ida24" x="-4158952.726338024" y="-578720.1699278093"/>
	<facility id="parada_Linha10_Ida25" x="-4158632.905440975" y="-578796.4025942988"/>
	<facility id="parada_Linha10_Ida26" x="-4158516.131295133" y="-578899.6856933405"/>
	<facility id="parada_Linha10_Ida27" x="-4158242.730625744" y="-579488.4246052539"/>
	<facility id="parada_Linha10_Ida28" x="-4158136.0865535643" y="-579183.0443237015"/>
	<facility id="parada_Linha10_Ida29" x="-4157959.979119129" y="-579040.1911912634"/>
	<facility id="parada_Linha10_Ida30" x="-4157702.4971369244" y="-579191.8748476574"/>
	<facility id="parada_Linha10_Ida31" x="-4157480.414752792" y="-579318.5203320094"/>
	<facility id="parada_Linha10_Ida32" x="-4157254.2135475" y="-579402.5781843684"/>
	<facility id="parada_Linha10_Ida33" x="-4157205.2329715514" y="-579013.5879012579"/>
</facilities>