<?xml version="1.0" encoding="utf-8"?>
<!DOCTYPE facilities SYSTEM "http://www.matsim.org/files/dtd/facilities_v1.dtd">

<facilities>
	<facility id="casaPessoa0" x="-4151738" y="-573635"/>
	<facility id="casaPessoa1" x="-4157045" y="-581100"/>
	<facility id="casaPessoa2" x="-4153327" y="-570568"/>
	<facility id="casaPessoa3" x="-4159628" y="-570098"/>
	<facility id="casaPessoa4" x="-4161578" y="-577879"/>
	<facility id="casaPessoa5" x="-4162338" y="-579768"/>
	<facility id="casaPessoa6" x="-4160889" y="-584528"/>
	<facility id="casaPessoa7" x="-4150331" y="-578942"/>
	<facility id="casaPessoa8" x="-4162833" y="-571052"/>
	<facility id="casaPessoa9" x="-4156626" y="-580586"/>
	<facility id="casaPessoa10" x="-4164329" y="-586557"/>
	<facility id="casaPessoa11" x="-4163106" y="-575492"/>
	<facility id="casaPessoa12" x="-4156073" y="-574195"/>
	<facility id="casaPessoa13" x="-4150861" y="-573666"/>
	<facility id="casaPessoa14" x="-4150151" y="-578472"/>
	<facility id="casaPessoa15" x="-4161612" y="-573812"/>
	<facility id="casaPessoa16" x="-4157171" y="-583407"/>
	<facility id="casaPessoa17" x="-4150896" y="-582567"/>
	<facility id="casaPessoa18" x="-4163518" y="-587153"/>
	<facility id="casaPessoa19" x="-4149909" y="-583358"/>
	<facility id="casaPessoa20" x="-4162589" y="-569605"/>
	<facility id="casaPessoa21" x="-4159375" y="-574018"/>
	<facility id="casaPessoa22" x="-4158372" y="-586935"/>
	<facility id="casaPessoa23" x="-4162689" y="-569783"/>
	<facility id="casaPessoa24" x="-4154952" y="-574448"/>
	<facility id="casaPessoa25" x="-4157572" y="-574500"/>
	<facility id="casaPessoa26" x="-4157723" y="-584392"/>
	<facility id="casaPessoa27" x="-4159830" y="-572662"/>
	<facility id="casaPessoa28" x="-4150791" y="-583191"/>
	<facility id="casaPessoa29" x="-4159931" y="-569652"/>
	<facility id="casaPessoa30" x="-4162238" y="-571369"/>
	<facility id="casaPessoa31" x="-4151526" y="-578539"/>
	<facility id="casaPessoa32" x="-4149158" y="-576521"/>
	<facility id="casaPessoa33" x="-4158189" y="-580483"/>
	<facility id="casaPessoa34" x="-4155872" y="-584988"/>
	<facility id="casaPessoa35" x="-4150876" y="-569839"/>
	<facility id="casaPessoa36" x="-4161476" y="-576231"/>
	<facility id="casaPessoa37" x="-4150140" y="-574759"/>
	<facility id="casaPessoa38" x="-4150183" y="-578909"/>
	<facility id="casaPessoa39" x="-4160419" y="-587144"/>
	<facility id="casaPessoa40" x="-4162030" y="-575454"/>
	<facility id="casaPessoa41" x="-4152204" y="-578640"/>
	<facility id="casaPessoa42" x="-4151349" y="-570014"/>
	<facility id="casaPessoa43" x="-4150624" y="-582317"/>
	<facility id="casaPessoa44" x="-4152903" y="-569923"/>
	<facility id="casaPessoa45" x="-4160680" y="-586715"/>
	<facility id="casaPessoa46" x="-4149183" y="-581165"/>
	<facility id="casaPessoa47" x="-4150412" y="-574262"/>
	<facility id="casaPessoa48" x="-4156568" y="-572856"/>
	<facility id="casaPessoa49" x="-4162465" y="-571231"/>
	<facility id="casaPessoa50" x="-4158887" y="-587165"/>
	<facility id="casaPessoa51" x="-4162782" y="-571187"/>
	<facility id="casaPessoa52" x="-4160405" y="-579794"/>
	<facility id="casaPessoa53" x="-4156209" y="-576073"/>
	<facility id="casaPessoa54" x="-4154754" y="-581751"/>
	<facility id="casaPessoa55" x="-4155182" y="-586699"/>
	<facility id="casaPessoa56" x="-4154604" y="-575262"/>
	<facility id="casaPessoa57" x="-4152889" y="-571189"/>
	<facility id="casaPessoa58" x="-4161331" y="-582953"/>
	<facility id="casaPessoa59" x="-4150631" y="-571917"/>
	<facility id="casaPessoa60" x="-4149410" y="-574920"/>
	<facility id="casaPessoa61" x="-4152604" y="-571833"/>
	<facility id="casaPessoa62" x="-4159687" y="-577663"/>
	<facility id="casaPessoa63" x="-4160139" y="-570575"/>
	<facility id="casaPessoa64" x="-4156144" y="-581221"/>
	<facility id="casaPessoa65" x="-4161567" y="-573066"/>
	<facility id="casaPessoa66" x="-4156085" y="-575690"/>
	<facility id="casaPessoa67" x="-4156334" y="-572269"/>
	<facility id="casaPessoa68" x="-4162680" y="-582068"/>
	<facility id="casaPessoa69" x="-4153723" y="-574406"/>
	<facility id="casaPessoa70" x="-4156873" y="-587103"/>
	<facility id="casaPessoa71" x="-4152044" y="-571270"/>
	<facility id="casaPessoa72" x="-4156247" y="-583023"/>
	<facility id="casaPessoa73" x="-4158815" y="-569978"/>
	<facility id="casaPessoa74" x="-4163216" y="-582640"/>
	<facility id="casaPessoa75" x="-4163753" y="-573002"/>
	<facility id="casaPessoa76" x="-4164452" y="-585096"/>
	<facility id="casaPessoa77" x="-4161605" y="-576933"/>
	<facility id="casaPessoa78" x="-4162959" y="-585703"/>
	<facility id="casaPessoa79" x="-4159104" y="-583905"/>
	<facility id="casaPessoa80" x="-4157000" y="-586156"/>
	<facility id="casaPessoa81" x="-4149087" y="-584511"/>
	<facility id="casaPessoa82" x="-4160985" y="-572852"/>
	<facility id="casaPessoa83" x="-4157257" y="-579935"/>
	<facility id="casaPessoa84" x="-4162944" y="-571148"/>
	<facility id="casaPessoa85" x="-4156252" y="-581622"/>
	<facility id="casaPessoa86" x="-4162805" y="-587347"/>
	<facility id="casaPessoa87" x="-4158269" y="-582854"/>
	<facility id="casaPessoa88" x="-4154378" y="-584402"/>
	<facility id="casaPessoa89" x="-4155638" y="-577331"/>
	<facility id="casaPessoa90" x="-4149692" y="-580493"/>
	<facility id="casaPessoa91" x="-4150273" y="-576933"/>
	<facility id="casaPessoa92" x="-4151110" y="-577578"/>
	<facility id="casaPessoa93" x="-4156090" y="-587307"/>
	<facility id="casaPessoa94" x="-4152322" y="-578974"/>
	<facility id="casaPessoa95" x="-4155471" y="-574915"/>
	<facility id="casaPessoa96" x="-4159816" y="-578872"/>
	<facility id="casaPessoa97" x="-4155165" y="-579570"/>
	<facility id="casaPessoa98" x="-4158096" y="-584163"/>
	<facility id="casaPessoa99" x="-4153890" y="-572343"/>
</facilities>