<?xml version="1.0" encoding="utf-8"?>
<!DOCTYPE facilities SYSTEM "http://www.matsim.org/files/dtd/facilities_v1.dtd">

<facilities>
	<!--====================================================================================================================|
	|																														|
	|														TERMINAIS														|
	|																														|
	|=====================================================================================================================-->
	<facility id="terminal_Praca_Felipe_Guerra" x="-4157205.2329715514" y="-579013.5879012579"/>
	<facility id="terminal_Carcara" x="-4157010.4238626626" y="-579083.7513058769"/>

	<!--====================================================================================================================|
	|																														|
	|													PARADAS MARCADAS													|
	|																														|
	|=====================================================================================================================-->
	<facility id="parada_ADVM" x="-4157514.478516975" y="-577843.8355162342"/>
	<facility id="parada_AeC" x="-4157254.2135475" y="-579402.5781843684"/>
	<facility id="parada_Caixa_Economica_Federal" x="-4157167.594377" y="-579124.995512"/>
	<facility id="parada_Central" x="-4156993.725939044" y="-578833.40117623"/>
	<facility id="parada_CIEE" x="-4157040.480125177" y="-578523.3290690613"/>
	<facility id="parada_Cobal" x="-4156400.949650569" y="-578380.589051281"/>
	<facility id="parada_Colegio_Diocesano_Ida" x="-4157538.284106" y="-578016.583956"/>
	<facility id="parada_Colegio_Diocesano_Volta" x="-4157528.3934533237" y="-578023.2372743305"/>
	<facility id="parada_EE_Jeronimo_Rosado_Ida" x="-4157658.3032990796" y="-577756.0908971574"/>
	<facility id="parada_EE_Jeronimo_Rosado_Volta" x="-4157640.937458515" y="-577760.1148518234"/>
	<facility id="parada_Estacao_Das_Artes" x="-4157185.1954632085" y="-578432.006722123"/>
	<facility id="parada_IFRN_Ida" x="-4154567.4063177137" y="-581057.8229540222"/>
	<facility id="parada_Igreja_Sao_Vicente" x="-4157240.521250132" y="-578854.0801504253"/>
	<facility id="parada_Hotel_Caraubas" x="-4156920.8116725744" y="-578539.9839529201"/>
	<facility id="parada_Loterica_Sorteca" x="-4157052.117734" y="-578695.037227"/>
	<facility id="parada_Mercado_Central" x="-4157003.9673321964" y="-578698.8203248462"/>
	<facility id="parada_Oficinas" x="-4157316.107184381" y="-579363.008384986"/>
	<facility id="parada_Praca_Dos_Hospitais" x="-4157137.586872" y="-578160.201966"/>
	<facility id="parada_Praca_Gazeta" x="-4157049.819830" y="-579098.329475"/>
	<facility id="parada_SESC" x="-4158011.238219" y="-577526.685307"/>
	<facility id="parada_Teatro_Dix-Huit" x="-4157267.5718863956" y="-578558.8743964208"/>
	<facility id="parada_UERN" x="-4154089.400424247" y="-580321.9227872522"/>
	<facility id="parada_UFERSA_Ida" x="-4155081.591045687" y="-580007.1940723791"/>
	<facility id="parada_UFERSA_Lateral_Ida" x="-4154817.875171998" y="-580580.0693477748"/>

	<!--====================================================================================================================|
	|																														|
	|									LINHA 01 - PARADAS ABOLIÇÕES, SANTA DELMIRA, REDENÇÃO								|
	|																														|
	|=====================================================================================================================-->
	<!--LINHA 01 - PARADAS ABOLIÇÕES, SANTA DELMIRA, REDENÇÃO - IDA=======================================================-->
	<facility id="parada_Linha1_Abolicoes_Ida0" x="-4157545.425335415" y="-573164.2705538222"/>
	<facility id="parada_Linha1_Abolicoes_Ida1" x="-4157688.3595615937" y="-573065.131276141"/>
	<facility id="parada_Linha1_Abolicoes_Ida2" x="-4157843.984209723" y="-573007.3690188295"/>
	<facility id="parada_Linha1_Abolicoes_Ida3" x="-4158007.401222207" y="-572900.1267168588"/>
	<facility id="parada_Linha1_Abolicoes_Ida4" x="-4158084.3229903453" y="-572813.7294404717"/>
	<facility id="parada_Linha1_Abolicoes_Ida5" x="-4158195.5311616478" y="-572830.5282817323"/>
	<facility id="parada_Linha1_Abolicoes_Ida6" x="-4158312.8619049434" y="-572998.4833816272"/>
	<facility id="parada_Linha1_Abolicoes_Ida7" x="-4158443.105709172" y="-573276.6099405785"/>
	<facility id="parada_Linha1_Abolicoes_Ida8" x="-4158545.8535991744" y="-573487.9215788961"/>
	<facility id="parada_Linha1_Abolicoes_Ida9"  x="-4158634.575233336" y="-573672.0737121633"/>
	<facility id="parada_Linha1_Abolicoes_Ida10" x="-4158734.7627750505" y="-573874.9143293812"/>
	<facility id="parada_Linha1_Abolicoes_Ida11" x="-4158667.30316363" y="-573982.9516719796"/>
	<facility id="parada_Linha1_Abolicoes_Ida12" x="-4158513.236988372" y="-574087.6807652494"/>
	<facility id="parada_Linha1_Abolicoes_Ida13" x="-4158358.168937697" y="-574191.8511584335"/>
	<facility id="parada_Linha1_Abolicoes_Ida14" x="-4158229.9288843023" y="-574278.8089641423"/>
	<facility id="parada_Linha1_Abolicoes_Ida15" x="-4158080.8720861305" y="-574383.6837961168"/>
	<facility id="parada_Linha1_Abolicoes_Ida16" x="-4158137.4223874537" y="-574573.5833051716"/>
	<facility id="parada_Linha1_Abolicoes_Ida17" x="-4158277.2396678897" y="-574533.8150198538"/>
	<facility id="parada_Linha1_Abolicoes_Ida18" x="-4158382.9931841437" y="-574466.0815666293"/>
	<facility id="parada_Linha1_Abolicoes_Ida19" x="-4158482.624128404" y="-574396.8392666283"/>
	<facility id="parada_Linha1_Abolicoes_Ida20" x="-4158583.368267572" y="-574324.8921734851"/>
	<facility id="parada_Linha1_Abolicoes_Ida21" x="-4158677.989834746" y="-574266.000005613"/>
	<facility id="parada_Linha1_Abolicoes_Ida22" x="-4158770.1623731228" y="-574201.0946116456"/>
	<facility id="parada_Linha1_Abolicoes_Ida23" x="-4158872.464985161" y="-574128.6559252895"/>
	<facility id="parada_Linha1_Abolicoes_Ida24" x="-4158969.3129421524" y="-574063.583000768"/>
	<facility id="parada_Linha1_Abolicoes_Ida25" x="-4159148.5373223294" y="-574222.4093263546"/>
	<facility id="parada_Linha1_Abolicoes_Ida26" x="-4159227.9081192645" y="-574107.3971240865"/>
	<facility id="parada_Linha1_Abolicoes_Ida27" x="-4159312.84489074" y="-573976.8042913645"/>
	<facility id="parada_Linha1_Abolicoes_Ida28" x="-4159460.2318965504" y="-574004.4786853797"/>
	<facility id="parada_Linha1_Abolicoes_Ida29" x="-4159923.0983392685" y="-573444.9237562835"/>
	<facility id="parada_Linha1_Abolicoes_Ida30" x="-4159467.24502447" y="-573041.1791579487"/>
	<facility id="parada_Linha1_Abolicoes_Ida31" x="-4159392.6609656387" y="-572968.4175230893"/>
	<facility id="parada_Linha1_Abolicoes_Ida32" x="-4159294.6998137403" y="-572886.2673795643"/>
	<facility id="parada_Linha1_Abolicoes_Ida33" x="-4159196.7386618424" y="-572798.8642016767"/>
	<facility id="parada_Linha1_Abolicoes_Ida34" x="-4159536.597067234" y="-573020.4795270677"/>
	<facility id="parada_Linha1_Abolicoes_Ida35" x="-4159627.099813249" y="-573185.6967270235"/>
	<facility id="parada_Linha1_Abolicoes_Ida36" x="-4159762.575633545" y="-573306.072374022"/>
	<facility id="parada_Linha1_Abolicoes_Ida37" x="-4160030.0763699203" y="-573616.2334057895"/>
	<facility id="parada_Linha1_Abolicoes_Ida38" x="-4159914.0814605136" y="-573830.161478687"/>
	<facility id="parada_Linha1_Abolicoes_Ida39" x="-4159836.38045594" y="-573969.09212371"/>
	<facility id="parada_Linha1_Abolicoes_Ida40" x="-4159542.6083197366" y="-574028.4423050578"/>
	<facility id="parada_Linha1_Abolicoes_Ida41" x="-4159484.3882260523" y="-574135.8539645725"/>
	<facility id="parada_Linha1_Abolicoes_Ida42" x="-4159422.38326968" y="-574237.2748626863"/>
	<facility id="parada_Linha1_Abolicoes_Ida43" x="-4159356.5934506217" y="-574350.3424573853"/>
	<facility id="parada_Linha1_Abolicoes_Ida44" x="-4159302.158219624" y="-574445.292103847"/>
	<facility id="parada_Linha1_Abolicoes_Ida45" x="-4159185.6067127627" y="-574634.2864278236"/>
	<facility id="parada_Linha1_Abolicoes_Ida46" x="-4159064.825065252" y="-574806.9625617871"/>
	<facility id="parada_Linha1_Abolicoes_Ida47" x="-4158909.534375596" y="-575031.5572894922"/>
	<facility id="parada_Linha1_Abolicoes_Ida48" x="-4158821.9259363413" y="-575142.6924871511"/>
	<facility id="parada_Linha1_Abolicoes_Ida49" x="-4158734.4288165784" y="-575265.6981060888"/>
	<facility id="parada_Linha1_Abolicoes_Ida50" x="-4158646.820377324" y="-575379.7621169621"/>
	<facility id="parada_Linha1_Abolicoes_Ida51" x="-4158575.241944744" y="-575472.1200095619"/>
	<facility id="parada_Linha1_Abolicoes_Ida52" x="-4158664.4088568687" y="-575584.8989620985"/>
	<facility id="parada_Linha1_Abolicoes_Ida53" x="-4158793.4281466985" y="-575670.7519203146"/>
	<facility id="parada_Linha1_Abolicoes_Ida54" x="-4158806.0072491583" y="-575894.3657769776"/>
	<facility id="parada_Linha1_Abolicoes_Ida55" x="-4158712.832835364" y="-575992.8383630038"/>
	<facility id="parada_Linha1_Abolicoes_Ida56" x="-4158298.3903711406" y="-576534.4959216001"/>
	<facility id="parada_Linha1_Abolicoes_Ida57" x="-4158214.2328361007" y="-576676.7515769599"/>
	<facility id="parada_Linha1_Abolicoes_Ida58" x="-4158154.0089915814" y="-576768.775836412"/>
	<facility id="parada_Linha1_Abolicoes_Ida59" x="-4157667.765455797" y="-577570.6539016819"/>
	<facility id="parada_Linha1_Abolicoes_Ida60" x="-4157713.1838080403" y="-577626.2737715637"/>
	<facility id="parada_Linha1_Abolicoes_Ida61" x="-4157288.9452286274" y="-577984.11535674"/>
	<facility id="parada_Linha1_Abolicoes_Ida62" x="-4157059.404438611" y="-578278.8715954764"/>

	<!--LINHA 01 - PARADA ABOLIÇÕES - IDA - VOLTA=========================================================================-->
	<facility id="parada_Linha1_Abolicoes_Ida_Volta" x="-4157417.6305599846" y="-573183.684879501"/>
	
	<!--LINHA 01 - PARADAS ABOLIÇÕES, SANTA DELMIRA, REDENÇÃO - VOLTA=====================================================-->
	<facility id="parada_Linha1_Abolicoes_Volta0" x="-4156707.634847705" y="-578589.2779610838"/>
	<facility id="parada_Linha1_Abolicoes_Volta1" x="-4156523.9576878957" y="-578471.6877763364"/>
	<facility id="parada_Linha1_Abolicoes_Volta2" x="-4156507.259764277" y="-578212.5876619997"/>
	<facility id="parada_Linha1_Abolicoes_Volta3" x="-4156812.2751690503" y="-578029.7203370538"/>
	<facility id="parada_Linha1_Abolicoes_Volta4" x="-4157013.763447386" y="-577978.4147362716"/>
	<facility id="parada_Linha1_Abolicoes_Volta5" x="-4157745.1325018983" y="-577683.3244231587"/>
	<facility id="parada_Linha1_Abolicoes_Volta6" x="-4157528.0594948516" y="-577220.5716424013"/>
	<facility id="parada_Linha1_Abolicoes_Volta7" x="-4157696.5972039127" y="-577123.4386537113"/>
	<facility id="parada_Linha1_Abolicoes_Volta8" x="-4157921.0172973513" y="-576982.0427695166"/>
	<facility id="parada_Linha1_Abolicoes_Volta9" x="-4158155.2335059806" y="-576744.2971258044"/>
	<facility id="parada_Linha1_Abolicoes_Volta10" x="-4158218.4629767514" y="-576645.7117195332"/>
	<facility id="parada_Linha1_Abolicoes_Volta11" x="-4158269.002025571" y="-576567.804755305"/>
	<facility id="parada_Linha1_Abolicoes_Volta12" x="-4158588.934242111" y="-576103.9415359223"/>
	<facility id="parada_Linha1_Abolicoes_Volta13" x="-4158786.63765776" y="-575891.4596641458"/>
	<facility id="parada_Linha1_Abolicoes_Volta14" x="-4158803.224261888" y="-575688.1438354695"/>
	<facility id="parada_Linha1_Abolicoes_Volta15" x="-4158646.597738342" y="-575586.3184802871"/>
	<facility id="parada_Linha1_Abolicoes_Volta16" x="-4158551.864851677" y="-575487.6787998759"/>
	<facility id="parada_Linha1_Abolicoes_Volta17" x="-4158632.126204539" y="-575379.6950533056"/>
	<facility id="parada_Linha1_Abolicoes_Volta18" x="-4158716.172420088" y="-575267.7211898386"/>
	<facility id="parada_Linha1_Abolicoes_Volta19" x="-4158804.1148178144" y="-575145.3750244987"/>
	<facility id="parada_Linha1_Abolicoes_Volta20" x="-4158892.8364519766" y="-575032.2055683265"/>
	<facility id="parada_Linha1_Abolicoes_Volta21" x="-4159047.793183161" y="-574812.7411671007"/>
	<facility id="parada_Linha1_Abolicoes_Volta22" x="-4159182.044489058" y="-574616.2129645942"/>
	<facility id="parada_Linha1_Abolicoes_Volta23" x="-4159299.152593372" y="-574427.5428253833"/>
	<facility id="parada_Linha1_Abolicoes_Volta24" x="-4159352.585948953" y="-574334.6944995812"/>
	<facility id="parada_Linha1_Abolicoes_Volta25" x="-4159416.8172951406" y="-574223.6388066853"/>
	<facility id="parada_Linha1_Abolicoes_Volta26" x="-4159469.9166922485" y="-574137.0834434056"/>
	<facility id="parada_Linha1_Abolicoes_Volta27" x="-4159923.0983392685" y="-573444.9237562835"/>
	<facility id="parada_Linha1_Abolicoes_Volta28" x="-4159467.24502447" y="-573041.1791579487"/>
	<facility id="parada_Linha1_Abolicoes_Volta29" x="-4159392.6609656387" y="-572968.4175230893"/>
	<facility id="parada_Linha1_Abolicoes_Volta30" x="-4159294.6998137403" y="-572886.2673795643"/>
	<facility id="parada_Linha1_Abolicoes_Volta31" x="-4159196.7386618424" y="-572798.8642016767"/>
	<facility id="parada_Linha1_Abolicoes_Volta32" x="-4159536.597067234" y="-573020.4795270677"/>
	<facility id="parada_Linha1_Abolicoes_Volta33" x="-4159627.099813249" y="-573185.6967270235"/>
	<facility id="parada_Linha1_Abolicoes_Volta34" x="-4159762.575633545" y="-573306.072374022"/>
	<facility id="parada_Linha1_Abolicoes_Volta35" x="-4160030.0763699203" y="-573616.2334057895"/>
	<facility id="parada_Linha1_Abolicoes_Volta36" x="-4159914.0814605136" y="-573830.161478687"/>
	<facility id="parada_Linha1_Abolicoes_Volta37" x="-4159836.38045594" y="-573969.09212371"/>
	<facility id="parada_Linha1_Abolicoes_Volta38" x="-4159542.6083197366" y="-574028.4423050578"/>
	<facility id="parada_Linha1_Abolicoes_Volta39" x="-4159445.315084784" y="-574006.501733183"/>
	<facility id="parada_Linha1_Abolicoes_Volta40" x="-4159328.5409389418" y="-573974.1217981727"/>
	<facility id="parada_Linha1_Abolicoes_Volta41" x="-4159246.1645157547" y="-574100.646170672"/>
	<facility id="parada_Linha1_Abolicoes_Volta42" x="-4159165.5692044203" y="-574215.8483725879"/>
	<facility id="parada_Linha1_Abolicoes_Volta43" x="-4158987.1240606783" y="-574065.393685941"/>
	<facility id="parada_Linha1_Abolicoes_Volta44" x="-4158891.1666596145" y="-574129.259487561"/>
	<facility id="parada_Linha1_Abolicoes_Volta45" x="-4158786.63765776" y="-574202.581164692"/>
	<facility id="parada_Linha1_Abolicoes_Volta46" x="-4158694.687758365" y="-574267.4083203116"/>
	<facility id="parada_Linha1_Abolicoes_Volta47" x="-4158599.398274246" y="-574326.3899062336"/>
	<facility id="parada_Linha1_Abolicoes_Volta48" x="-4158499.8786494764" y="-574400.1924030879"/>
	<facility id="parada_Linha1_Abolicoes_Volta49" x="-4158399.691107762" y="-574467.0316228691"/>
	<facility id="parada_Linha1_Abolicoes_Volta50" x="-4158300.0601635026" y="-574532.6973055806"/>
	<facility id="parada_Linha1_Abolicoes_Volta51" x="-4158146.3279467174" y="-574596.2393899891"/>
	<facility id="parada_Linha1_Abolicoes_Volta52" x="-4158052.040338015" y="-574379.0676460405"/>
	<facility id="parada_Linha1_Abolicoes_Volta53" x="-4158216.79318439" y="-574278.585422088"/>
	<facility id="parada_Linha1_Abolicoes_Volta54" x="-4158345.9237937094" y="-574187.1567812058"/>
	<facility id="parada_Linha1_Abolicoes_Volta55" x="-4158486.075032618" y="-574083.8805606609"/>
	<facility id="parada_Linha1_Abolicoes_Volta56" x="-4158637.5808595885" y="-573984.7400009857"/>
	<facility id="parada_Linha1_Abolicoes_Volta57" x="-4158710.717765039" y="-573867.71631653"/>
	<facility id="parada_Linha1_Abolicoes_Volta58" x="-4158608.971750454" y="-573668.2064677543"/>
	<facility id="parada_Linha1_Abolicoes_Volta59" x="-4158521.6972696725" y="-573479.5388456478"/>
	<facility id="parada_Linha1_Abolicoes_Volta60" x="-4158423.068200829" y="-573263.3764387827"/>
	<facility id="parada_Linha1_Abolicoes_Volta61" x="-4158308.4091253118" y="-573018.5570994515"/>
	<facility id="parada_Linha1_Abolicoes_Volta62" x="-4158197.646231972" y="-572853.1279267278"/>
	<facility id="parada_Linha1_Abolicoes_Volta63" x="-4158119.9452273985" y="-572802.3849158478"/>
	<facility id="parada_Linha1_Abolicoes_Volta64" x="-4158033.449983052" y="-572890.1792890114"/>
	<facility id="parada_Linha1_Abolicoes_Volta65" x="-4157873.1499163103" y="-572999.4222413547"/>
	<facility id="parada_Linha1_Abolicoes_Volta66" x="-4157725.8742299913" y="-573051.9760520393"/>
	<facility id="parada_Linha1_Abolicoes_Volta67" x="-4157575.9268758926" y="-573155.2954816245"/>

	<!--====================================================================================================================|
	|																														|
	|								LINHA 02 - PARADAS ABOLIÇÕES, SANTA DELMIRA, REDENÇÃO									|
	|																														|
	|=====================================================================================================================-->
	<!--LINHA 02 - PARADAS ABOLIÇÕES, SANTA DELMIRA, REDENÇÃO - IDA=======================================================-->
	<facility id="parada_Linha2_Abolicoes_Ida0" x="-4157545.425335415" y="-573164.2705538222"/>
	<facility id="parada_Linha2_Abolicoes_Ida1" x="-4157688.3595615937" y="-573065.131276141"/>
	<facility id="parada_Linha2_Abolicoes_Ida2" x="-4157843.984209723" y="-573007.3690188295"/>
	<facility id="parada_Linha2_Abolicoes_Ida3" x="-4158007.401222207" y="-572900.1267168588"/>
	<facility id="parada_Linha2_Abolicoes_Ida4" x="-4158084.3229903453" y="-572813.7294404717"/>
	<facility id="parada_Linha2_Abolicoes_Ida5" x="-4158195.5311616478" y="-572830.5282817323"/>
	<facility id="parada_Linha2_Abolicoes_Ida6" x="-4158312.8619049434" y="-572998.4833816272"/>
	<facility id="parada_Linha2_Abolicoes_Ida7" x="-4158443.105709172" y="-573276.6099405785"/>
	<facility id="parada_Linha2_Abolicoes_Ida8" x="-4158545.8535991744" y="-573487.9215788961"/>
	<facility id="parada_Linha2_Abolicoes_Ida9" x="-4158634.575233336" y="-573672.0737121633"/>
	<facility id="parada_Linha2_Abolicoes_Ida10" x="-4158734.7627750505" y="-573874.9143293812"/>
	<facility id="parada_Linha2_Abolicoes_Ida11" x="-4158667.30316363" y="-573982.9516719796"/>
	<facility id="parada_Linha2_Abolicoes_Ida12" x="-4158513.236988372" y="-574087.6807652494"/>
	<facility id="parada_Linha2_Abolicoes_Ida13" x="-4158358.168937697" y="-574191.8511584335"/>
	<facility id="parada_Linha2_Abolicoes_Ida14" x="-4158229.9288843023" y="-574278.8089641423"/>
	<facility id="parada_Linha2_Abolicoes_Ida15" x="-4158080.8720861305" y="-574383.6837961168"/>
	<facility id="parada_Linha2_Abolicoes_Ida16" x="-4158137.4223874537" y="-574573.5833051716"/>
	<facility id="parada_Linha2_Abolicoes_Ida17" x="-4158277.2396678897" y="-574533.8150198538"/>
	<facility id="parada_Linha2_Abolicoes_Ida18" x="-4158382.9931841437" y="-574466.0815666293"/>
	<facility id="parada_Linha2_Abolicoes_Ida19" x="-4158482.624128404" y="-574396.8392666283"/>
	<facility id="parada_Linha2_Abolicoes_Ida20" x="-4158583.368267572" y="-574324.8921734851"/>
	<facility id="parada_Linha2_Abolicoes_Ida21" x="-4158677.989834746" y="-574266.000005613"/>
	<facility id="parada_Linha2_Abolicoes_Ida22" x="-4158770.1623731228" y="-574201.0946116456"/>
	<facility id="parada_Linha2_Abolicoes_Ida23" x="-4158872.464985161" y="-574128.6559252895"/>
	<facility id="parada_Linha2_Abolicoes_Ida24" x="-4158969.3129421524" y="-574063.583000768"/>
	<facility id="parada_Linha2_Abolicoes_Ida25" x="-4159148.5373223294" y="-574222.4093263546"/>
	<facility id="parada_Linha2_Abolicoes_Ida26" x="-4159227.9081192645" y="-574107.3971240865"/>
	<facility id="parada_Linha2_Abolicoes_Ida27" x="-4159312.84489074" y="-573976.8042913645"/>
	<facility id="parada_Linha2_Abolicoes_Ida28" x="-4159460.2318965504" y="-574004.4786853797"/>
	<facility id="parada_Linha2_Abolicoes_Ida29" x="-4159484.3882260523" y="-574135.8539645725"/>
	<facility id="parada_Linha2_Abolicoes_Ida30" x="-4159422.38326968" y="-574237.2748626863"/>
	<facility id="parada_Linha2_Abolicoes_Ida31" x="-4159356.5934506217" y="-574350.3424573853"/>
	<facility id="parada_Linha2_Abolicoes_Ida32" x="-4159302.158219624" y="-574445.292103847"/>
	<facility id="parada_Linha2_Abolicoes_Ida33" x="-4159185.6067127627" y="-574634.2864278236"/>
	<facility id="parada_Linha2_Abolicoes_Ida34" x="-4159064.825065252" y="-574806.9625617871"/>
	<facility id="parada_Linha2_Abolicoes_Ida35" x="-4158909.534375596" y="-575031.5572894922"/>
	<facility id="parada_Linha2_Abolicoes_Ida36" x="-4158821.9259363413" y="-575142.6924871511"/>
	<facility id="parada_Linha2_Abolicoes_Ida37" x="-4158734.4288165784" y="-575265.6981060888"/>
	<facility id="parada_Linha2_Abolicoes_Ida38" x="-4158646.820377324" y="-575379.7621169621"/>
	<facility id="parada_Linha2_Abolicoes_Ida39" x="-4158575.241944744" y="-575472.1200095619"/>
	<facility id="parada_Linha2_Abolicoes_Ida40" x="-4158664.4088568687" y="-575584.8989620985"/>
	<facility id="parada_Linha2_Abolicoes_Ida41" x="-4158793.4281466985" y="-575670.7519203146"/>
	<facility id="parada_Linha2_Abolicoes_Ida42" x="-4158806.0072491583" y="-575894.3657769776"/>
	<facility id="parada_Linha2_Abolicoes_Ida43" x="-4158712.832835364" y="-575992.8383630038"/>
	<facility id="parada_Linha2_Abolicoes_Ida44" x="-4158298.3903711406" y="-576534.4959216001"/>
	<facility id="parada_Linha2_Abolicoes_Ida45" x="-4158214.2328361007" y="-576676.7515769599"/>
	<facility id="parada_Linha2_Abolicoes_Ida46" x="-4158154.0089915814" y="-576768.775836412"/>
	<facility id="parada_Linha2_Abolicoes_Ida47" x="-4158403.649798" y="-577108.595663"/>
	<facility id="parada_Linha2_Abolicoes_Ida48" x="-4158174.711941" y="-577347.759958"/>
	<facility id="parada_Linha2_Abolicoes_Ida49" x="-4157831.491769" y="-577720.017244"/>

	<!--LINHA 02 - PARADA ABOLIÇÕES - IDA - VOLTA=========================================================================-->
	<facility id="parada_Linha2_Abolicoes_Ida_Volta" x="-4157417.6305599846" y="-573183.684879501"/>

	<!--LINHA 02 - PARADAS ABOLIÇÕES, SANTA DELMIRA, REDENÇÃO - VOLTA=====================================================-->
	<facility id="parada_Linha2_Abolicoes_Volta0" x="-4156707.634847705" y="-578589.2779610838"/>
	<facility id="parada_Linha2_Abolicoes_Volta1" x="-4156523.9576878957" y="-578471.6877763364"/>
	<facility id="parada_Linha2_Abolicoes_Volta2" x="-4156507.259764277" y="-578212.5876619997"/>
	<facility id="parada_Linha2_Abolicoes_Volta3" x="-4156812.2751690503" y="-578029.7203370538"/>
	<facility id="parada_Linha2_Abolicoes_Volta4" x="-4157013.763447386" y="-577978.4147362716"/>
	<facility id="parada_Linha2_Abolicoes_Volta5" x="-4157812.905031" y="-577655.374210"/>
	<facility id="parada_Linha2_Abolicoes_Volta6" x="-4158094.841218" y="-577417.852116"/>
	<facility id="parada_Linha2_Abolicoes_Volta7" x="-4158272.273656" y="-577232.805834"/>
	<facility id="parada_Linha2_Abolicoes_Volta8" x="-4158395.737372" y="-577102.474729"/>
	<facility id="parada_Linha2_Abolicoes_Volta9" x="-4158155.2335059806" y="-576744.2971258044"/>
	<facility id="parada_Linha2_Abolicoes_Volta10" x="-4158218.4629767514" y="-576645.7117195332"/>
	<facility id="parada_Linha2_Abolicoes_Volta11" x="-4158269.002025571" y="-576567.804755305"/>
	<facility id="parada_Linha2_Abolicoes_Volta12" x="-4158588.934242111" y="-576103.9415359223"/>
	<facility id="parada_Linha2_Abolicoes_Volta13" x="-4158786.63765776" y="-575891.4596641458"/>
	<facility id="parada_Linha2_Abolicoes_Volta14" x="-4158803.224261888" y="-575688.1438354695"/>
	<facility id="parada_Linha2_Abolicoes_Volta15" x="-4158646.597738342" y="-575586.3184802871"/>
	<facility id="parada_Linha2_Abolicoes_Volta16" x="-4158551.864851677" y="-575487.6787998759"/>
	<facility id="parada_Linha2_Abolicoes_Volta17" x="-4158632.126204539" y="-575379.6950533056"/>
	<facility id="parada_Linha2_Abolicoes_Volta18" x="-4158716.172420088" y="-575267.7211898386"/>
	<facility id="parada_Linha2_Abolicoes_Volta19" x="-4158804.1148178144" y="-575145.3750244987"/>
	<facility id="parada_Linha2_Abolicoes_Volta20" x="-4158892.8364519766" y="-575032.2055683265"/>
	<facility id="parada_Linha2_Abolicoes_Volta21" x="-4159047.793183161" y="-574812.7411671007"/>
	<facility id="parada_Linha2_Abolicoes_Volta22" x="-4159182.044489058" y="-574616.2129645942"/>
	<facility id="parada_Linha2_Abolicoes_Volta23" x="-4159299.152593372" y="-574427.5428253833"/>
	<facility id="parada_Linha2_Abolicoes_Volta24" x="-4159352.585948953" y="-574334.6944995812"/>
	<facility id="parada_Linha2_Abolicoes_Volta25" x="-4159416.8172951406" y="-574223.6388066853"/>
	<facility id="parada_Linha2_Abolicoes_Volta26" x="-4159469.9166922485" y="-574137.0834434056"/>
	<facility id="parada_Linha2_Abolicoes_Volta27" x="-4159445.315084784" y="-574006.501733183"/>
	<facility id="parada_Linha2_Abolicoes_Volta28" x="-4159328.5409389418" y="-573974.1217981727"/>
	<facility id="parada_Linha2_Abolicoes_Volta29" x="-4159246.1645157547" y="-574100.646170672"/>
	<facility id="parada_Linha2_Abolicoes_Volta30" x="-4159165.5692044203" y="-574215.8483725879"/>
	<facility id="parada_Linha2_Abolicoes_Volta31" x="-4158987.1240606783" y="-574065.393685941"/>
	<facility id="parada_Linha2_Abolicoes_Volta32" x="-4158891.1666596145" y="-574129.259487561"/>
	<facility id="parada_Linha2_Abolicoes_Volta33" x="-4158786.63765776" y="-574202.581164692"/>
	<facility id="parada_Linha2_Abolicoes_Volta34" x="-4158694.687758365" y="-574267.4083203116"/>
	<facility id="parada_Linha2_Abolicoes_Volta35" x="-4158599.398274246" y="-574326.3899062336"/>
	<facility id="parada_Linha2_Abolicoes_Volta36" x="-4158499.8786494764" y="-574400.1924030879"/>
	<facility id="parada_Linha2_Abolicoes_Volta37" x="-4158399.691107762" y="-574467.0316228691"/>
	<facility id="parada_Linha2_Abolicoes_Volta38" x="-4158300.0601635026" y="-574532.6973055806"/>
	<facility id="parada_Linha2_Abolicoes_Volta39" x="-4158146.3279467174" y="-574596.2393899891"/>
	<facility id="parada_Linha2_Abolicoes_Volta40" x="-4158052.040338015" y="-574379.0676460405"/>
	<facility id="parada_Linha2_Abolicoes_Volta41" x="-4158216.79318439" y="-574278.585422088"/>
	<facility id="parada_Linha2_Abolicoes_Volta42" x="-4158345.9237937094" y="-574187.1567812058"/>
	<facility id="parada_Linha2_Abolicoes_Volta43" x="-4158486.075032618" y="-574083.8805606609"/>
	<facility id="parada_Linha2_Abolicoes_Volta44" x="-4158637.5808595885" y="-573984.7400009857"/>
	<facility id="parada_Linha2_Abolicoes_Volta45" x="-4158710.717765039" y="-573867.71631653"/>
	<facility id="parada_Linha2_Abolicoes_Volta46" x="-4158608.971750454" y="-573668.2064677543"/>
	<facility id="parada_Linha2_Abolicoes_Volta47" x="-4158521.6972696725" y="-573479.5388456478"/>
	<facility id="parada_Linha2_Abolicoes_Volta48" x="-4158423.068200829" y="-573263.3764387827"/>
	<facility id="parada_Linha2_Abolicoes_Volta49" x="-4158308.4091253118" y="-573018.5570994515"/>
	<facility id="parada_Linha2_Abolicoes_Volta50" x="-4158197.646231972" y="-572853.1279267278"/>
	<facility id="parada_Linha2_Abolicoes_Volta51" x="-4158119.9452273985" y="-572802.3849158478"/>
	<facility id="parada_Linha2_Abolicoes_Volta52" x="-4158033.449983052" y="-572890.1792890114"/>
	<facility id="parada_Linha2_Abolicoes_Volta53" x="-4157873.1499163103" y="-572999.4222413547"/>
	<facility id="parada_Linha2_Abolicoes_Volta54" x="-4157725.8742299913" y="-573051.9760520393"/>
	<facility id="parada_Linha2_Abolicoes_Volta55" x="-4157575.9268758926" y="-573155.2954816245"/>

	<!--====================================================================================================================|
	|																														|
	|							LINHA 02 - PARADAS ABOLIÇÕES, SANTA DELMIRA, REDENÇÃO, UNIVERSIDADES						|
	|																														|
	|=====================================================================================================================-->
	<!--LINHA 02 - PARADAS ABOLIÇÕES, SANTA DELMIRA, REDENÇÃO, UNIVERSIDADES VIA AEC======================================-->
	<facility id="parada_Linha2_Abolicoes_Universidades_AeC_Ida0" x="-4154293.8943288345" y="-580215.161230164"/>
	<facility id="parada_Linha2_Abolicoes_Universidades_AeC_Ida1" x="-4154445.956753258" y="-580112.4574582785"/>
	<facility id="parada_Linha2_Abolicoes_Universidades_AeC_Ida2" x="-4155447.498211925" y="-580311.1247834272"/>
	<facility id="parada_Linha2_Abolicoes_Universidades_AeC_Ida3" x="-4155740.2684727116" y="-580531.444630866"/>
	<facility id="parada_Linha2_Abolicoes_Universidades_AeC_Ida4" x="-4156018.7898386763" y="-580603.7333888423"/>
	<facility id="parada_Linha2_Abolicoes_Universidades_AeC_Ida5" x="-4156186.993589265" y="-580324.8737947972"/>
	<facility id="parada_Linha2_Abolicoes_Universidades_AeC_Ida6" x="-4156313.8978087693" y="-580121.2433867494"/>
	<facility id="parada_Linha2_Abolicoes_Universidades_AeC_Ida7" x="-4156458.279188328" y="-579892.3960175905"/>
	<facility id="parada_Linha2_Abolicoes_Universidades_AeC_Ida8" x="-4156536.202831883" y="-579762.3961096862"/>
	<facility id="parada_Linha2_Abolicoes_Universidades_AeC_Ida9" x="-4156812.9430859946" y="-579176.494087661"/>
	<facility id="parada_Linha2_Abolicoes_Universidades_AeC_Ida10" x="-4156864.2613712507" y="-578890.586938058"/>

	<!--LINHA 02 - PARADAS ABOLIÇÕES, SANTA DELMIRA, REDENÇÃO, UNIVERSIDADES VIA IFRN=====================================-->
	<facility id="parada_Linha2_Abolicoes_Universidades_IFRN_Ida0" x="-4154293.8943288345" y="-580215.161230164"/>
	<facility id="parada_Linha2_Abolicoes_Universidades_IFRN_Ida1" x="-4154445.956753258" y="-580112.4574582785"/>
	<facility id="parada_Linha2_Abolicoes_Universidades_IFRN_Ida2" x="-4155090.162646478" y="-580392.9482077922"/>
	<facility id="parada_Linha2_Abolicoes_Universidades_IFRN_Ida3" x="-4154687.965326243" y="-580669.7177646335"/>