<?xml version="1.0" encoding="utf-8"?>
<!DOCTYPE plans SYSTEM "http://www.matsim.org/files/dtd/plans_v4.dtd">

<plans>
	<person id="pessoa0">
		<plan>
			<act end_time="05:34:41" x="471" y="-284" type="home"/>
			<leg mode="pt"/>
			<act end_time="13:34:41" x="-116" y="336" type="work"/>
			<leg mode="pt"/>
			<act end_time="20:34:41" x="-532" y="344" type="shop"/>
			<leg mode="pt"/>
			<act x="471" y="-284" type="home"/>
		</plan>
	</person>
</plans>