<?xml version="1.0" encoding="utf-8"?>
<!DOCTYPE plans SYSTEM "http://www.matsim.org/files/dtd/plans_v4.dtd">

<plans>

	<person id="pessoa0">
		<plan>
			<act end_time="05:34:41" x="471" y="-284" type="home"/>
			<leg mode="pt"/>
			<act end_time="13:34:41" x="-116" y="336" type="work"/>
			<leg mode="pt"/>
			<act end_time="20:34:41" x="-532" y="344" type="shop"/>
			<leg mode="pt"/>
			<act x="471" y="-284" type="home"/>
		</plan>
	</person>

	<person id="pessoa1">
		<plan>
			<act end_time="06:56:37" x="-217" y="-375" type="home"/>
			<leg mode="pt"/>
			<act end_time="18:56:37" x="-20" y="239" type="work"/>
			<leg mode="pt"/>
			<act x="-217" y="-375" type="home"/>
		</plan>
	</person>

	<person id="pessoa2">
		<plan>
			<act end_time="12:43:36" x="154" y="-384" type="home"/>
			<leg mode="pt"/>
			<act end_time="19:43:36" x="-351" y="241" type="work"/>
			<leg mode="pt"/>
			<act x="154" y="-384" type="home"/>
		</plan>
	</person>

	<person id="pessoa3">
		<plan>
			<act end_time="04:29:37" x="349" y="-361" type="home"/>
			<leg mode="pt"/>
			<act end_time="13:29:37" x="-467" y="352" type="shop"/>
			<leg mode="pt"/>
			<act x="349" y="-361" type="home"/>
		</plan>
	</person>

	<person id="pessoa4">
		<plan>
			<act end_time="11:01:12" x="-23" y="-317" type="home"/>
			<leg mode="pt"/>
			<act x="0" y="0" type="home"/>
		</plan>
	</person>

	<person id="pessoa5">
		<plan>
			<act end_time="08:40:40" x="97" y="-227" type="home"/>
			<leg mode="pt"/>
			<act end_time="11:40:40" x="368" y="273" type="work"/>
			<leg mode="pt"/>
			<act x="97" y="-227" type="home"/>
		</plan>
	</person>

	<person id="pessoa6">
		<plan>
			<act end_time="12:44:33" x="-535" y="-296" type="home"/>
			<leg mode="pt"/>
			<act x="0" y="0" type="home"/>
		</plan>
	</person>

	<person id="pessoa7">
		<plan>
			<act end_time="14:30:43" x="525" y="-222" type="home"/>
			<leg mode="pt"/>
			<act x="0" y="0" type="home"/>
		</plan>
	</person>

	<person id="pessoa8">
		<plan>
			<act end_time="12:04:47" x="-488" y="-295" type="home"/>
			<leg mode="pt"/>
			<act end_time="18:04:47" x="112" y="229" type="shop"/>
			<leg mode="pt"/>
			<act x="-488" y="-295" type="home"/>
		</plan>
	</person>

	<person id="pessoa9">
		<plan>
			<act end_time="13:30:23" x="-234" y="-384" type="home"/>
			<leg mode="pt"/>
			<act x="0" y="0" type="home"/>
		</plan>
	</person>

	<person id="pessoa10">
		<plan>
			<act end_time="11:28:05" x="-18" y="-320" type="home"/>
			<leg mode="pt"/>
			<act x="0" y="0" type="home"/>
		</plan>
	</person>

	<person id="pessoa11">
		<plan>
			<act end_time="14:03:04" x="440" y="-249" type="home"/>
			<leg mode="pt"/>
			<act x="0" y="0" type="home"/>
		</plan>
	</person>

	<person id="pessoa12">
		<plan>
			<act end_time="08:25:41" x="588" y="-288" type="home"/>
			<leg mode="pt"/>
			<act end_time="21:25:41" x="-84" y="228" type="work"/>
			<leg mode="pt"/>
			<act x="588" y="-288" type="home"/>
		</plan>
	</person>

	<person id="pessoa13">
		<plan>
			<act end_time="14:28:04" x="306" y="-314" type="home"/>
			<leg mode="pt"/>
			<act x="0" y="0" type="home"/>
		</plan>
	</person>

	<person id="pessoa14">
		<plan>
			<act end_time="04:02:36" x="-349" y="-369" type="home"/>
			<leg mode="pt"/>
			<act end_time="13:02:36" x="-309" y="384" type="shop"/>
			<leg mode="pt"/>
			<act x="-349" y="-369" type="home"/>
		</plan>
	</person>

	<person id="pessoa15">
		<plan>
			<act end_time="13:26:25" x="-590" y="-250" type="home"/>
			<leg mode="pt"/>
			<act x="0" y="0" type="home"/>
		</plan>
	</person>

	<person id="pessoa16">
		<plan>
			<act end_time="14:23:36" x="-534" y="-361" type="home"/>
			<leg mode="pt"/>
			<act x="0" y="0" type="home"/>
		</plan>
	</person>

	<person id="pessoa17">
		<plan>
			<act end_time="06:46:08" x="299" y="-260" type="home"/>
			<leg mode="pt"/>
			<act end_time="19:46:08" x="238" y="271" type="shop"/>
			<leg mode="pt"/>
			<act x="299" y="-260" type="home"/>
		</plan>
	</person>

	<person id="pessoa18">
		<plan>
			<act end_time="12:56:33" x="-475" y="-364" type="home"/>
			<leg mode="pt"/>
			<act x="0" y="0" type="home"/>
		</plan>
	</person>

	<person id="pessoa19">
		<plan>
			<act end_time="13:50:13" x="-309" y="-366" type="home"/>
			<leg mode="pt"/>
			<act end_time="21:50:13" x="-396" y="228" type="shop"/>
			<leg mode="pt"/>
			<act x="-309" y="-366" type="home"/>
		</plan>
	</person>

	<person id="pessoa20">
		<plan>
			<act end_time="12:05:04" x="169" y="-356" type="home"/>
			<leg mode="pt"/>
			<act end_time="19:05:04" x="439" y="389" type="work"/>
			<leg mode="pt"/>
			<act x="169" y="-356" type="home"/>
		</plan>
	</person>

	<person id="pessoa21">
		<plan>
			<act end_time="13:54:59" x="-38" y="-267" type="home"/>
			<leg mode="pt"/>
			<act end_time="22:54:59" x="401" y="236" type="work"/>
			<leg mode="pt"/>
			<act x="-38" y="-267" type="home"/>
		</plan>
	</person>

	<person id="pessoa22">
		<plan>
			<act end_time="14:47:24" x="-212" y="-376" type="home"/>
			<leg mode="pt"/>
			<act x="0" y="0" type="home"/>
		</plan>
	</person>

	<person id="pessoa23">
		<plan>
			<act end_time="08:15:40" x="-257" y="-280" type="home"/>
			<leg mode="pt"/>
			<act end_time="20:15:40" x="473" y="315" type="shop"/>
			<leg mode="pt"/>
			<act x="-257" y="-280" type="home"/>
		</plan>
	</person>

	<person id="pessoa24">
		<plan>
			<act end_time="07:45:34" x="69" y="-345" type="home"/>
			<leg mode="pt"/>
			<act end_time="17:45:34" x="-353" y="319" type="work"/>
			<leg mode="pt"/>
			<act x="69" y="-345" type="home"/>
		</plan>
	</person>

	<person id="pessoa25">
		<plan>
			<act end_time="14:51:05" x="-12" y="-235" type="home"/>
			<leg mode="pt"/>
			<act end_time="17:51:05" x="-126" y="210" type="work"/>
			<leg mode="pt"/>
			<act x="-12" y="-235" type="home"/>
		</plan>
	</person>

	<person id="pessoa26">
		<plan>
			<act end_time="12:11:18" x="245" y="-328" type="home"/>
			<leg mode="pt"/>
			<act x="0" y="0" type="home"/>
		</plan>
	</person>

	<person id="pessoa27">
		<plan>
			<act end_time="12:05:16" x="539" y="-201" type="home"/>
			<leg mode="pt"/>
			<act end_time="18:05:16" x="181" y="271" type="shop"/>
			<leg mode="pt"/>
			<act x="539" y="-201" type="home"/>
		</plan>
	</person>

	<person id="pessoa28">
		<plan>
			<act end_time="08:21:28" x="-283" y="-258" type="home"/>
			<leg mode="pt"/>
			<act end_time="18:21:28" x="186" y="207" type="work"/>
			<leg mode="pt"/>
			<act x="-283" y="-258" type="home"/>
		</plan>
	</person>

	<person id="pessoa29">
		<plan>
			<act end_time="07:47:51" x="-209" y="-266" type="home"/>
			<leg mode="pt"/>
			<act x="0" y="0" type="home"/>
		</plan>
	</person>

	<person id="pessoa30">
		<plan>
			<act end_time="12:53:27" x="-239" y="-222" type="home"/>
			<leg mode="pt"/>
			<act end_time="18:53:27" x="323" y="364" type="work"/>
			<leg mode="pt"/>
			<act x="-239" y="-222" type="home"/>
		</plan>
	</person>

	<person id="pessoa31">
		<plan>
			<act end_time="13:12:18" x="-2" y="-289" type="home"/>
			<leg mode="pt"/>
			<act x="0" y="0" type="home"/>
		</plan>
	</person>

	<person id="pessoa32">
		<plan>
			<act end_time="11:34:16" x="-39" y="-204" type="home"/>
			<leg mode="pt"/>
			<act x="0" y="0" type="home"/>
		</plan>
	</person>

	<person id="pessoa33">
		<plan>
			<act end_time="08:27:16" x="-13" y="-242" type="home"/>
			<leg mode="pt"/>
			<act end_time="13:27:16" x="521" y="313" type="work"/>
			<leg mode="pt"/>
			<act end_time="17:27:16" x="229" y="265" type="shop"/>
			<leg mode="pt"/>
			<act x="-13" y="-242" type="home"/>
		</plan>
	</person>

	<person id="pessoa34">
		<plan>
			<act end_time="08:17:11" x="-228" y="-286" type="home"/>
			<leg mode="pt"/>
			<act end_time="21:17:11" x="-510" y="320" type="shop"/>
			<leg mode="pt"/>
			<act x="-228" y="-286" type="home"/>
		</plan>
	</person>

	<person id="pessoa35">
		<plan>
			<act end_time="12:51:37" x="-220" y="-236" type="home"/>
			<leg mode="pt"/>
			<act x="0" y="0" type="home"/>
		</plan>
	</person>

	<person id="pessoa36">
		<plan>
			<act end_time="14:06:56" x="-292" y="-301" type="home"/>
			<leg mode="pt"/>
			<act end_time="17:06:56" x="-419" y="231" type="shop"/>
			<leg mode="pt"/>
			<act x="-292" y="-301" type="home"/>
		</plan>
	</person>

	<person id="pessoa37">
		<plan>
			<act end_time="06:37:32" x="-221" y="-383" type="home"/>
			<leg mode="pt"/>
			<act end_time="12:37:32" x="-376" y="273" type="shop"/>
			<leg mode="pt"/>
			<act end_time="22:37:32" x="-379" y="279" type="work"/>
			<leg mode="pt"/>
			<act x="-221" y="-383" type="home"/>
		</plan>
	</person>

	<person id="pessoa38">
		<plan>
			<act end_time="07:04:51" x="290" y="-371" type="home"/>
			<leg mode="pt"/>
			<act end_time="22:04:51" x="402" y="248" type="shop"/>
			<leg mode="pt"/>
			<act x="290" y="-371" type="home"/>
		</plan>
	</person>

	<person id="pessoa39">
		<plan>
			<act end_time="06:57:22" x="428" y="-367" type="home"/>
			<leg mode="pt"/>
			<act end_time="14:57:22" x="-265" y="327" type="work"/>
			<leg mode="pt"/>
			<act end_time="18:57:22" x="-593" y="360" type="shop"/>
			<leg mode="pt"/>
			<act x="428" y="-367" type="home"/>
		</plan>
	</person>

	<person id="pessoa40">
		<plan>
			<act end_time="11:53:41" x="427" y="-283" type="home"/>
			<leg mode="pt"/>
			<act x="0" y="0" type="home"/>
		</plan>
	</person>

	<person id="pessoa41">
		<plan>
			<act end_time="11:15:19" x="590" y="-323" type="home"/>
			<leg mode="pt"/>
			<act x="0" y="0" type="home"/>
		</plan>
	</person>

	<person id="pessoa42">
		<plan>
			<act end_time="14:09:14" x="-437" y="-386" type="home"/>
			<leg mode="pt"/>
			<act end_time="20:09:14" x="451" y="261" type="shop"/>
			<leg mode="pt"/>
			<act x="-437" y="-386" type="home"/>
		</plan>
	</person>

	<person id="pessoa43">
		<plan>
			<act end_time="04:21:23" x="-215" y="-279" type="home"/>
			<leg mode="pt"/>
			<act end_time="22:21:23" x="251" y="208" type="shop"/>
			<leg mode="pt"/>
			<act x="-215" y="-279" type="home"/>
		</plan>
	</person>

	<person id="pessoa44">
		<plan>
			<act end_time="14:51:21" x="248" y="-249" type="home"/>
			<leg mode="pt"/>
			<act x="0" y="0" type="home"/>
		</plan>
	</person>

	<person id="pessoa45">
		<plan>
			<act end_time="12:02:18" x="-49" y="-382" type="home"/>
			<leg mode="pt"/>
			<act x="0" y="0" type="home"/>
		</plan>
	</person>

	<person id="pessoa46">
		<plan>
			<act end_time="14:53:52" x="539" y="-238" type="home"/>
			<leg mode="pt"/>
			<act x="0" y="0" type="home"/>
		</plan>
	</person>

	<person id="pessoa47">
		<plan>
			<act end_time="13:00:56" x="-373" y="-324" type="home"/>
			<leg mode="pt"/>
			<act x="0" y="0" type="home"/>
		</plan>
	</person>

	<person id="pessoa48">
		<plan>
			<act end_time="05:55:12" x="353" y="-365" type="home"/>
			<leg mode="pt"/>
			<act end_time="14:55:12" x="498" y="257" type="shop"/>
			<leg mode="pt"/>
			<act end_time="21:55:12" x="36" y="289" type="work"/>
			<leg mode="pt"/>
			<act x="353" y="-365" type="home"/>
		</plan>
	</person>

	<person id="pessoa49">
		<plan>
			<act end_time="14:42:47" x="-171" y="-229" type="home"/>
			<leg mode="pt"/>
			<act x="0" y="0" type="home"/>
		</plan>
	</person>

	<person id="pessoa50">
		<plan>
			<act end_time="13:34:46" x="-381" y="-215" type="home"/>
			<leg mode="pt"/>
			<act x="0" y="0" type="home"/>
		</plan>
	</person>

	<person id="pessoa51">
		<plan>
			<act end_time="07:07:50" x="-542" y="-213" type="home"/>
			<leg mode="pt"/>
			<act end_time="14:07:50" x="-509" y="267" type="work"/>
			<leg mode="pt"/>
			<act x="-542" y="-213" type="home"/>
		</plan>
	</person>

	<person id="pessoa52">
		<plan>
			<act end_time="05:59:56" x="133" y="-277" type="home"/>
			<leg mode="pt"/>
			<act end_time="13:59:56" x="67" y="369" type="work"/>
			<leg mode="pt"/>
			<act x="133" y="-277" type="home"/>
		</plan>
	</person>

	<person id="pessoa53">
		<plan>
			<act end_time="04:37:53" x="-137" y="-321" type="home"/>
			<leg mode="pt"/>
			<act end_time="20:37:53" x="379" y="342" type="work"/>
			<leg mode="pt"/>
			<act x="-137" y="-321" type="home"/>
		</plan>
	</person>

	<person id="pessoa54">
		<plan>
			<act end_time="11:57:47" x="-402" y="-274" type="home"/>
			<leg mode="pt"/>
			<act x="0" y="0" type="home"/>
		</plan>
	</person>

	<person id="pessoa55">
		<plan>
			<act end_time="12:06:06" x="-73" y="-381" type="home"/>
			<leg mode="pt"/>
			<act x="0" y="0" type="home"/>
		</plan>
	</person>

	<person id="pessoa56">
		<plan>
			<act end_time="14:51:40" x="365" y="-333" type="home"/>
			<leg mode="pt"/>
			<act end_time="21:51:40" x="-132" y="244" type="work"/>
			<leg mode="pt"/>
			<act x="365" y="-333" type="home"/>
		</plan>
	</person>

	<person id="pessoa57">
		<plan>
			<act end_time="06:18:00" x="328" y="-311" type="home"/>
			<leg mode="pt"/>
			<act end_time="17:18:00" x="-41" y="368" type="work"/>
			<leg mode="pt"/>
			<act x="328" y="-311" type="home"/>
		</plan>
	</person>

	<person id="pessoa58">
		<plan>
			<act end_time="08:38:56" x="235" y="-266" type="home"/>
			<leg mode="pt"/>
			<act end_time="20:38:56" x="133" y="341" type="work"/>
			<leg mode="pt"/>
			<act x="235" y="-266" type="home"/>
		</plan>
	</person>

	<person id="pessoa59">
		<plan>
			<act end_time="12:34:58" x="-270" y="-244" type="home"/>
			<leg mode="pt"/>
			<act x="0" y="0" type="home"/>
		</plan>
	</person>

	<person id="pessoa60">
		<plan>
			<act end_time="14:23:04" x="436" y="-275" type="home"/>
			<leg mode="pt"/>
			<act end_time="17:23:04" x="13" y="210" type="work"/>
			<leg mode="pt"/>
			<act x="436" y="-275" type="home"/>
		</plan>
	</person>

	<person id="pessoa61">
		<plan>
			<act end_time="12:33:01" x="167" y="-216" type="home"/>
			<leg mode="pt"/>
			<act x="0" y="0" type="home"/>
		</plan>
	</person>

	<person id="pessoa62">
		<plan>
			<act end_time="14:29:28" x="-566" y="-351" type="home"/>
			<leg mode="pt"/>
			<act end_time="22:29:28" x="-511" y="249" type="work"/>
			<leg mode="pt"/>
			<act x="-566" y="-351" type="home"/>
		</plan>
	</person>

	<person id="pessoa63">
		<plan>
			<act end_time="11:47:51" x="285" y="-217" type="home"/>
			<leg mode="pt"/>
			<act end_time="22:47:51" x="154" y="218" type="shop"/>
			<leg mode="pt"/>
			<act x="285" y="-217" type="home"/>
		</plan>
	</person>

	<person id="pessoa64">
		<plan>
			<act end_time="13:42:18" x="-143" y="-299" type="home"/>
			<leg mode="pt"/>
			<act x="0" y="0" type="home"/>
		</plan>
	</person>

	<person id="pessoa65">
		<plan>
			<act end_time="13:26:58" x="-599" y="-324" type="home"/>
			<leg mode="pt"/>
			<act end_time="19:26:58" x="-226" y="215" type="work"/>
			<leg mode="pt"/>
			<act x="-599" y="-324" type="home"/>
		</plan>
	</person>

	<person id="pessoa66">
		<plan>
			<act end_time="11:05:25" x="276" y="-214" type="home"/>
			<leg mode="pt"/>
			<act end_time="20:05:25" x="-433" y="243" type="work"/>
			<leg mode="pt"/>
			<act x="276" y="-214" type="home"/>
		</plan>
	</person>

	<person id="pessoa67">
		<plan>
			<act end_time="05:52:19" x="381" y="-342" type="home"/>
			<leg mode="pt"/>
			<act end_time="12:52:19" x="-487" y="360" type="shop"/>
			<leg mode="pt"/>
			<act x="381" y="-342" type="home"/>
		</plan>
	</person>

	<person id="pessoa68">
		<plan>
			<act end_time="13:18:34" x="-49" y="-351" type="home"/>
			<leg mode="pt"/>
			<act end_time="19:18:34" x="97" y="314" type="shop"/>
			<leg mode="pt"/>
			<act x="-49" y="-351" type="home"/>
		</plan>
	</person>

	<person id="pessoa69">
		<plan>
			<act end_time="12:56:41" x="280" y="-281" type="home"/>
			<leg mode="pt"/>
			<act x="0" y="0" type="home"/>
		</plan>
	</person>

	<person id="pessoa70">
		<plan>
			<act end_time="13:22:32" x="409" y="-275" type="home"/>
			<leg mode="pt"/>
			<act x="0" y="0" type="home"/>
		</plan>
	</person>

	<person id="pessoa71">
		<plan>
			<act end_time="14:23:07" x="-392" y="-202" type="home"/>
			<leg mode="pt"/>
			<act end_time="18:23:07" x="-83" y="252" type="work"/>
			<leg mode="pt"/>
			<act x="-392" y="-202" type="home"/>
		</plan>
	</person>

	<person id="pessoa72">
		<plan>
			<act end_time="12:11:33" x="-532" y="-226" type="home"/>
			<leg mode="pt"/>
			<act x="0" y="0" type="home"/>
		</plan>
	</person>

	<person id="pessoa73">
		<plan>
			<act end_time="13:59:08" x="-554" y="-310" type="home"/>
			<leg mode="pt"/>
			<act end_time="22:59:08" x="200" y="254" type="work"/>
			<leg mode="pt"/>
			<act x="-554" y="-310" type="home"/>
		</plan>
	</person>

	<person id="pessoa74">
		<plan>
			<act end_time="12:46:29" x="199" y="-378" type="home"/>
			<leg mode="pt"/>
			<act x="0" y="0" type="home"/>
		</plan>
	</person>

	<person id="pessoa75">
		<plan>
			<act end_time="08:19:30" x="544" y="-273" type="home"/>
			<leg mode="pt"/>
			<act end_time="18:19:30" x="-287" y="242" type="work"/>
			<leg mode="pt"/>
			<act x="544" y="-273" type="home"/>
		</plan>
	</person>

	<person id="pessoa76">
		<plan>
			<act end_time="11:12:41" x="-141" y="-356" type="home"/>
			<leg mode="pt"/>
			<act x="0" y="0" type="home"/>
		</plan>
	</person>

	<person id="pessoa77">
		<plan>
			<act end_time="14:46:12" x="88" y="-305" type="home"/>
			<leg mode="pt"/>
			<act x="0" y="0" type="home"/>
		</plan>
	</person>

	<person id="pessoa78">
		<plan>
			<act end_time="06:40:12" x="31" y="-364" type="home"/>
			<leg mode="pt"/>
			<act x="0" y="0" type="home"/>
		</plan>
	</person>

	<person id="pessoa79">
		<plan>
			<act end_time="14:09:23" x="-414" y="-395" type="home"/>
			<leg mode="pt"/>
			<act end_time="22:09:23" x="-250" y="251" type="shop"/>
			<leg mode="pt"/>
			<act x="-414" y="-395" type="home"/>
		</plan>
	</person>

	<person id="pessoa80">
		<plan>
			<act end_time="12:46:00" x="164" y="-268" type="home"/>
			<leg mode="pt"/>
			<act x="0" y="0" type="home"/>
		</plan>
	</person>

	<person id="pessoa81">
		<plan>
			<act end_time="11:44:33" x="533" y="-219" type="home"/>
			<leg mode="pt"/>
			<act end_time="22:44:33" x="123" y="327" type="work"/>
			<leg mode="pt"/>
			<act x="533" y="-219" type="home"/>
		</plan>
	</person>

	<person id="pessoa82">
		<plan>
			<act end_time="11:43:47" x="-532" y="-342" type="home"/>
			<leg mode="pt"/>
			<act end_time="22:43:47" x="-272" y="297" type="work"/>
			<leg mode="pt"/>
			<act x="-532" y="-342" type="home"/>
		</plan>
	</person>

	<person id="pessoa83">
		<plan>
			<act end_time="14:44:04" x="478" y="-308" type="home"/>
			<leg mode="pt"/>
			<act x="0" y="0" type="home"/>
		</plan>
	</person>

	<person id="pessoa84">
		<plan>
			<act end_time="11:21:46" x="-255" y="-376" type="home"/>
			<leg mode="pt"/>
			<act end_time="17:21:46" x="514" y="274" type="work"/>
			<leg mode="pt"/>
			<act x="-255" y="-376" type="home"/>
		</plan>
	</person>

	<person id="pessoa85">
		<plan>
			<act end_time="12:00:52" x="424" y="-275" type="home"/>
			<leg mode="pt"/>
			<act x="0" y="0" type="home"/>
		</plan>
	</person>

	<person id="pessoa86">
		<plan>
			<act end_time="14:37:51" x="-469" y="-239" type="home"/>
			<leg mode="pt"/>
			<act x="0" y="0" type="home"/>
		</plan>
	</person>

	<person id="pessoa87">
		<plan>
			<act end_time="05:40:52" x="-298" y="-383" type="home"/>
			<leg mode="pt"/>
			<act end_time="18:40:52" x="-113" y="323" type="shop"/>
			<leg mode="pt"/>
			<act x="-298" y="-383" type="home"/>
		</plan>
	</person>

	<person id="pessoa88">
		<plan>
			<act end_time="06:13:35" x="596" y="-243" type="home"/>
			<leg mode="pt"/>
			<act end_time="13:13:35" x="-423" y="304" type="shop"/>
			<leg mode="pt"/>
			<act x="596" y="-243" type="home"/>
		</plan>
	</person>

	<person id="pessoa89">
		<plan>
			<act end_time="14:38:56" x="-539" y="-206" type="home"/>
			<leg mode="pt"/>
			<act end_time="21:38:56" x="-407" y="385" type="work"/>
			<leg mode="pt"/>
			<act x="-539" y="-206" type="home"/>
		</plan>
	</person>

	<person id="pessoa90">
		<plan>
			<act end_time="14:15:12" x="-128" y="-398" type="home"/>
			<leg mode="pt"/>
			<act x="0" y="0" type="home"/>
		</plan>
	</person>

	<person id="pessoa91">
		<plan>
			<act end_time="14:27:22" x="-295" y="-210" type="home"/>
			<leg mode="pt"/>
			<act x="0" y="0" type="home"/>
		</plan>
	</person>

	<person id="pessoa92">
		<plan>
			<act end_time="08:30:55" x="383" y="-378" type="home"/>
			<leg mode="pt"/>
			<act end_time="11:30:55" x="-412" y="399" type="shop"/>
			<leg mode="pt"/>
			<act end_time="21:30:55" x="-564" y="311" type="work"/>
			<leg mode="pt"/>
			<act x="383" y="-378" type="home"/>
		</plan>
	</person>

	<person id="pessoa93">
		<plan>
			<act end_time="11:53:11" x="309" y="-305" type="home"/>
			<leg mode="pt"/>
			<act x="0" y="0" type="home"/>
		</plan>
	</person>

	<person id="pessoa94">
		<plan>
			<act end_time="12:54:32" x="165" y="-324" type="home"/>
			<leg mode="pt"/>
			<act x="0" y="0" type="home"/>
		</plan>
	</person>

	<person id="pessoa95">
		<plan>
			<act end_time="06:29:02" x="142" y="-274" type="home"/>
			<leg mode="pt"/>
			<act end_time="12:29:02" x="-340" y="231" type="work"/>
			<leg mode="pt"/>
			<act end_time="20:29:02" x="-388" y="227" type="shop"/>
			<leg mode="pt"/>
			<act x="142" y="-274" type="home"/>
		</plan>
	</person>

	<person id="pessoa96">
		<plan>
			<act end_time="11:49:02" x="-190" y="-329" type="home"/>
			<leg mode="pt"/>
			<act x="0" y="0" type="home"/>
		</plan>
	</person>

	<person id="pessoa97">
		<plan>
			<act end_time="08:44:49" x="285" y="-317" type="home"/>
			<leg mode="pt"/>
			<act end_time="13:44:49" x="116" y="360" type="work"/>
			<leg mode="pt"/>
			<act x="285" y="-317" type="home"/>
		</plan>
	</person>

	<person id="pessoa98">
		<plan>
			<act end_time="12:35:51" x="359" y="-224" type="home"/>
			<leg mode="pt"/>
			<act end_time="17:35:51" x="-1" y="328" type="work"/>
			<leg mode="pt"/>
			<act x="359" y="-224" type="home"/>
		</plan>
	</person>

	<person id="pessoa99">
		<plan>
			<act end_time="13:16:41" x="120" y="-204" type="home"/>
			<leg mode="pt"/>
			<act x="0" y="0" type="home"/>
		</plan>
	</person>

</plans>