<?xml version="1.0" encoding="utf-8"?>
<!DOCTYPE facilities SYSTEM "http://www.matsim.org/files/dtd/facilities_v1.dtd">

<facilities>
	<facility id="paradaLINHA_1_ABOLICOES_SANTA_DELMIRA_REDENCAO_VOLTA0" x="-4157205.2329715514" y="-579013.5879012579"/>
	<facility id="paradaLINHA_1_ABOLICOES_SANTA_DELMIRA_REDENCAO_VOLTA1" x="-4157240.521250132" y="-578854.0801504253"/>
	<facility id="paradaLINHA_1_ABOLICOES_SANTA_DELMIRA_REDENCAO_VOLTA2" x="-4157040.480125177" y="-578523.3290690613"/>
	<facility id="paradaLINHA_1_ABOLICOES_SANTA_DELMIRA_REDENCAO_VOLTA3" x="-4156920.8116725744" y="-578539.9839529201"/>
	<facility id="paradaLINHA_1_ABOLICOES_SANTA_DELMIRA_REDENCAO_VOLTA4" x="-4156707.634847705" y="-578589.2779610838"/>
	<facility id="paradaLINHA_1_ABOLICOES_SANTA_DELMIRA_REDENCAO_VOLTA5" x="-4156523.9576878957" y="-578471.6877763364"/>
	<facility id="paradaLINHA_1_ABOLICOES_SANTA_DELMIRA_REDENCAO_VOLTA6" x="-4156400.949650569" y="-578380.589051281"/>
	<facility id="paradaLINHA_1_ABOLICOES_SANTA_DELMIRA_REDENCAO_VOLTA7" x="-4156507.259764277" y="-578212.5876619997"/>
	<facility id="paradaLINHA_1_ABOLICOES_SANTA_DELMIRA_REDENCAO_VOLTA8" x="-4156812.2751690503" y="-578029.7203370538"/>
	<facility id="paradaLINHA_1_ABOLICOES_SANTA_DELMIRA_REDENCAO_VOLTA9" x="-4157013.763447386" y="-577978.4147362716"/>
	<facility id="paradaLINHA_1_ABOLICOES_SANTA_DELMIRA_REDENCAO_VOLTA10" x="-4157126.752730541" y="-578161.0583739443"/>
	<facility id="paradaLINHA_1_ABOLICOES_SANTA_DELMIRA_REDENCAO_VOLTA11" x="-4157528.3934533237" y="-578023.2372743305"/>
	<facility id="paradaLINHA_1_ABOLICOES_SANTA_DELMIRA_REDENCAO_VOLTA12" x="-4157640.937458515" y="-577760.1148518234"/>
	<facility id="paradaLINHA_1_ABOLICOES_SANTA_DELMIRA_REDENCAO_VOLTA13" x="-4157745.1325018983" y="-577683.3244231587"/>
	<facility id="paradaLINHA_1_ABOLICOES_SANTA_DELMIRA_REDENCAO_VOLTA14" x="-4157528.0594948516" y="-577220.5716424013"/>
	<facility id="paradaLINHA_1_ABOLICOES_SANTA_DELMIRA_REDENCAO_VOLTA15" x="-4157696.5972039127" y="-577123.4386537113"/>
	<facility id="paradaLINHA_1_ABOLICOES_SANTA_DELMIRA_REDENCAO_VOLTA16" x="-4157921.0172973513" y="-576982.0427695166"/>
	<facility id="paradaLINHA_1_ABOLICOES_SANTA_DELMIRA_REDENCAO_VOLTA17" x="-4158155.2335059806" y="-576744.2971258044"/>
	<facility id="paradaLINHA_1_ABOLICOES_SANTA_DELMIRA_REDENCAO_VOLTA18" x="-4158218.4629767514" y="-576645.7117195332"/>
	<facility id="paradaLINHA_1_ABOLICOES_SANTA_DELMIRA_REDENCAO_VOLTA19" x="-4158269.002025571" y="-576567.804755305"/>
	<facility id="paradaLINHA_1_ABOLICOES_SANTA_DELMIRA_REDENCAO_VOLTA20" x="-4158588.934242111" y="-576103.9415359223"/>
	<facility id="paradaLINHA_1_ABOLICOES_SANTA_DELMIRA_REDENCAO_VOLTA21" x="-4158786.63765776" y="-575891.4596641458"/>
	<facility id="paradaLINHA_1_ABOLICOES_SANTA_DELMIRA_REDENCAO_VOLTA22" x="-4158803.224261888" y="-575688.1438354695"/>
	<facility id="paradaLINHA_1_ABOLICOES_SANTA_DELMIRA_REDENCAO_VOLTA23" x="-4158646.597738342" y="-575586.3184802871"/>
	<facility id="paradaLINHA_1_ABOLICOES_SANTA_DELMIRA_REDENCAO_VOLTA24" x="-4158551.864851677" y="-575487.6787998759"/>
	<facility id="paradaLINHA_1_ABOLICOES_SANTA_DELMIRA_REDENCAO_VOLTA25" x="-4158632.126204539" y="-575379.6950533056"/>
	<facility id="paradaLINHA_1_ABOLICOES_SANTA_DELMIRA_REDENCAO_VOLTA26" x="-4158716.172420088" y="-575267.7211898386"/>
	<facility id="paradaLINHA_1_ABOLICOES_SANTA_DELMIRA_REDENCAO_VOLTA27" x="-4158804.1148178144" y="-575145.3750244987"/>
	<facility id="paradaLINHA_1_ABOLICOES_SANTA_DELMIRA_REDENCAO_VOLTA28" x="-4158892.8364519766" y="-575032.2055683265"/>
	<facility id="paradaLINHA_1_ABOLICOES_SANTA_DELMIRA_REDENCAO_VOLTA29" x="-4159047.793183161" y="-574812.7411671007"/>
	<facility id="paradaLINHA_1_ABOLICOES_SANTA_DELMIRA_REDENCAO_VOLTA30" x="-4159182.044489058" y="-574616.2129645942"/>
	<facility id="paradaLINHA_1_ABOLICOES_SANTA_DELMIRA_REDENCAO_VOLTA31" x="-4159299.152593372" y="-574427.5428253833"/>
	<facility id="paradaLINHA_1_ABOLICOES_SANTA_DELMIRA_REDENCAO_VOLTA32" x="-4159352.585948953" y="-574334.6944995812"/>
	<facility id="paradaLINHA_1_ABOLICOES_SANTA_DELMIRA_REDENCAO_VOLTA33" x="-4159416.8172951406" y="-574223.6388066853"/>
	<facility id="paradaLINHA_1_ABOLICOES_SANTA_DELMIRA_REDENCAO_VOLTA34" x="-4159469.9166922485" y="-574137.0834434056"/>
	<facility id="paradaLINHA_1_ABOLICOES_SANTA_DELMIRA_REDENCAO_VOLTA35" x="-4159923.0983392685" y="-573444.9237562835"/>
	<facility id="paradaLINHA_1_ABOLICOES_SANTA_DELMIRA_REDENCAO_VOLTA36" x="-4159467.24502447" y="-573041.1791579487"/>
	<facility id="paradaLINHA_1_ABOLICOES_SANTA_DELMIRA_REDENCAO_VOLTA37" x="-4159392.6609656387" y="-572968.4175230893"/>
	<facility id="paradaLINHA_1_ABOLICOES_SANTA_DELMIRA_REDENCAO_VOLTA38" x="-4159294.6998137403" y="-572886.2673795643"/>
	<facility id="paradaLINHA_1_ABOLICOES_SANTA_DELMIRA_REDENCAO_VOLTA39" x="-4159196.7386618424" y="-572798.8642016767"/>
	<facility id="paradaLINHA_1_ABOLICOES_SANTA_DELMIRA_REDENCAO_VOLTA40" x="-4159536.597067234" y="-573020.4795270677"/>
	<facility id="paradaLINHA_1_ABOLICOES_SANTA_DELMIRA_REDENCAO_VOLTA41" x="-4159627.099813249" y="-573185.6967270235"/>
	<facility id="paradaLINHA_1_ABOLICOES_SANTA_DELMIRA_REDENCAO_VOLTA42" x="-4159762.575633545" y="-573306.072374022"/>
	<facility id="paradaLINHA_1_ABOLICOES_SANTA_DELMIRA_REDENCAO_VOLTA43" x="-4160030.0763699203" y="-573616.2334057895"/>
	<facility id="paradaLINHA_1_ABOLICOES_SANTA_DELMIRA_REDENCAO_VOLTA44" x="-4159914.0814605136" y="-573830.161478687"/>
	<facility id="paradaLINHA_1_ABOLICOES_SANTA_DELMIRA_REDENCAO_VOLTA45" x="-4159836.38045594" y="-573969.09212371"/>
	<facility id="paradaLINHA_1_ABOLICOES_SANTA_DELMIRA_REDENCAO_VOLTA46" x="-4159542.6083197366" y="-574028.4423050578"/>
	<facility id="paradaLINHA_1_ABOLICOES_SANTA_DELMIRA_REDENCAO_VOLTA47" x="-4159445.315084784" y="-574006.501733183"/>
	<facility id="paradaLINHA_1_ABOLICOES_SANTA_DELMIRA_REDENCAO_VOLTA48" x="-4159328.5409389418" y="-573974.1217981727"/>
	<facility id="paradaLINHA_1_ABOLICOES_SANTA_DELMIRA_REDENCAO_VOLTA49" x="-4159246.1645157547" y="-574100.646170672"/>
	<facility id="paradaLINHA_1_ABOLICOES_SANTA_DELMIRA_REDENCAO_VOLTA50" x="-4159165.5692044203" y="-574215.8483725879"/>
	<facility id="paradaLINHA_1_ABOLICOES_SANTA_DELMIRA_REDENCAO_VOLTA51" x="-4158987.1240606783" y="-574065.393685941"/>
	<facility id="paradaLINHA_1_ABOLICOES_SANTA_DELMIRA_REDENCAO_VOLTA52" x="-4158891.1666596145" y="-574129.259487561"/>
	<facility id="paradaLINHA_1_ABOLICOES_SANTA_DELMIRA_REDENCAO_VOLTA53" x="-4158786.63765776" y="-574202.581164692"/>
	<facility id="paradaLINHA_1_ABOLICOES_SANTA_DELMIRA_REDENCAO_VOLTA54" x="-4158694.687758365" y="-574267.4083203116"/>
	<facility id="paradaLINHA_1_ABOLICOES_SANTA_DELMIRA_REDENCAO_VOLTA55" x="-4158599.398274246" y="-574326.3899062336"/>
	<facility id="paradaLINHA_1_ABOLICOES_SANTA_DELMIRA_REDENCAO_VOLTA56" x="-4158499.8786494764" y="-574400.1924030879"/>
	<facility id="paradaLINHA_1_ABOLICOES_SANTA_DELMIRA_REDENCAO_VOLTA57" x="-4158399.691107762" y="-574467.0316228691"/>
	<facility id="paradaLINHA_1_ABOLICOES_SANTA_DELMIRA_REDENCAO_VOLTA58" x="-4158300.0601635026" y="-574532.6973055806"/>
	<facility id="paradaLINHA_1_ABOLICOES_SANTA_DELMIRA_REDENCAO_VOLTA59" x="-4158146.3279467174" y="-574596.2393899891"/>
	<facility id="paradaLINHA_1_ABOLICOES_SANTA_DELMIRA_REDENCAO_VOLTA60" x="-4158052.040338015" y="-574379.0676460405"/>
	<facility id="paradaLINHA_1_ABOLICOES_SANTA_DELMIRA_REDENCAO_VOLTA61" x="-4158216.79318439" y="-574278.585422088"/>
	<facility id="paradaLINHA_1_ABOLICOES_SANTA_DELMIRA_REDENCAO_VOLTA62" x="-4158345.9237937094" y="-574187.1567812058"/>
	<facility id="paradaLINHA_1_ABOLICOES_SANTA_DELMIRA_REDENCAO_VOLTA63" x="-4158486.075032618" y="-574083.8805606609"/>
	<facility id="paradaLINHA_1_ABOLICOES_SANTA_DELMIRA_REDENCAO_VOLTA64" x="-4158637.5808595885" y="-573984.7400009857"/>
	<facility id="paradaLINHA_1_ABOLICOES_SANTA_DELMIRA_REDENCAO_VOLTA65" x="-4158710.717765039" y="-573867.71631653"/>
	<facility id="paradaLINHA_1_ABOLICOES_SANTA_DELMIRA_REDENCAO_VOLTA66" x="-4158608.971750454" y="-573668.2064677543"/>
	<facility id="paradaLINHA_1_ABOLICOES_SANTA_DELMIRA_REDENCAO_VOLTA67" x="-4158521.6972696725" y="-573479.5388456478"/>
	<facility id="paradaLINHA_1_ABOLICOES_SANTA_DELMIRA_REDENCAO_VOLTA68" x="-4158423.068200829" y="-573263.3764387827"/>
	<facility id="paradaLINHA_1_ABOLICOES_SANTA_DELMIRA_REDENCAO_VOLTA69" x="-4158308.4091253118" y="-573018.5570994515"/>
	<facility id="paradaLINHA_1_ABOLICOES_SANTA_DELMIRA_REDENCAO_VOLTA70" x="-4158197.646231972" y="-572853.1279267278"/>
	<facility id="paradaLINHA_1_ABOLICOES_SANTA_DELMIRA_REDENCAO_VOLTA71" x="-4158119.9452273985" y="-572802.3849158478"/>
	<facility id="paradaLINHA_1_ABOLICOES_SANTA_DELMIRA_REDENCAO_VOLTA72" x="-4158033.449983052" y="-572890.1792890114"/>
	<facility id="paradaLINHA_1_ABOLICOES_SANTA_DELMIRA_REDENCAO_VOLTA73" x="-4157873.1499163103" y="-572999.4222413547"/>
	<facility id="paradaLINHA_1_ABOLICOES_SANTA_DELMIRA_REDENCAO_VOLTA74" x="-4157725.8742299913" y="-573051.9760520393"/>
	<facility id="paradaLINHA_1_ABOLICOES_SANTA_DELMIRA_REDENCAO_VOLTA75" x="-4157575.9268758926" y="-573155.2954816245"/>
	<facility id="paradaLINHA_1_ABOLICOES_SANTA_DELMIRA_REDENCAO_VOLTA76" x="-4157417.6305599846" y="-573183.684879501"/>
</facilities>