<?xml version="1.0" encoding="utf-8"?>
<!DOCTYPE plans SYSTEM "http://www.matsim.org/files/dtd/plans_v4.dtd">

<plans>

	<person id="nova-mossoro_alto-das-brisas_05" >
		<plan>
			<act end_time="5:00:00" x="-4155775.828369" y="-570475.332125" type="home"/>
 			<leg mode="pt"/>
			<act x="-4151086.894415" y="-578548.284105" type="home"/>
 		</plan>
	</person>

	<person id="nova-mossoro_alto-das-brisas_06" >
		<plan>
			<act end_time="6:00:00" x="-4155775.828369" y="-570475.332125" type="home"/>
 			<leg mode="pt"/>
			<act x="-4151086.894415" y="-578548.284105" type="home"/>
 		</plan>
	</person>

	<person id="nova-mossoro_alto-das-brisas_07" >
		<plan>
			<act end_time="7:00:00" x="-4155775.828369" y="-570475.332125" type="home"/>
 			<leg mode="pt"/>
			<act x="-4151086.894415" y="-578548.284105" type="home"/>
 		</plan>
	</person>

	<person id="nova-mossoro_alto-das-brisas_08" >
		<plan>
			<act end_time="8:00:00" x="-4155775.828369" y="-570475.332125" type="home"/>
 			<leg mode="pt"/>
			<act x="-4151086.894415" y="-578548.284105" type="home"/>
 		</plan>
	</person>

	<person id="nova-mossoro_alto-das-brisas_09" >
		<plan>
			<act end_time="9:00:00" x="-4155775.828369" y="-570475.332125" type="home"/>
 			<leg mode="pt"/>
			<act x="-4151086.894415" y="-578548.284105" type="home"/>
 		</plan>
	</person>

	<person id="nova-mossoro_alto-das-brisas_10" >
		<plan>
			<act end_time="10:00:00" x="-4155775.828369" y="-570475.332125" type="home"/>
 			<leg mode="pt"/>
			<act x="-4151086.894415" y="-578548.284105" type="home"/>
 		</plan>
	</person>

	<person id="nova-mossoro_alto-das-brisas_11" >
		<plan>
			<act end_time="11:00:00" x="-4155775.828369" y="-570475.332125" type="home"/>
 			<leg mode="pt"/>
			<act x="-4151086.894415" y="-578548.284105" type="home"/>
 		</plan>
	</person>

	<person id="nova-mossoro_alto-das-brisas_12" >
		<plan>
			<act end_time="12:00:00" x="-4155775.828369" y="-570475.332125" type="home"/>
 			<leg mode="pt"/>
			<act x="-4151086.894415" y="-578548.284105" type="home"/>
 		</plan>
	</person>

	<person id="nova-mossoro_alto-das-brisas_13" >
		<plan>
			<act end_time="13:00:00" x="-4155775.828369" y="-570475.332125" type="home"/>
 			<leg mode="pt"/>
			<act x="-4151086.894415" y="-578548.284105" type="home"/>
 		</plan>
	</person>

	<person id="nova-mossoro_alto-das-brisas_14" >
		<plan>
			<act end_time="14:00:00" x="-4155775.828369" y="-570475.332125" type="home"/>
 			<leg mode="pt"/>
			<act x="-4151086.894415" y="-578548.284105" type="home"/>
 		</plan>
	</person>

	<person id="nova-mossoro_alto-das-brisas_15" >
		<plan>
			<act end_time="15:00:00" x="-4155775.828369" y="-570475.332125" type="home"/>
 			<leg mode="pt"/>
			<act x="-4151086.894415" y="-578548.284105" type="home"/>
 		</plan>
	</person>

	<person id="nova-mossoro_alto-das-brisas_16" >
		<plan>
			<act end_time="16:00:00" x="-4155775.828369" y="-570475.332125" type="home"/>
 			<leg mode="pt"/>
			<act x="-4151086.894415" y="-578548.284105" type="home"/>
 		</plan>
	</person>

	<person id="nova-mossoro_alto-das-brisas_17" >
		<plan>
			<act end_time="17:00:00" x="-4155775.828369" y="-570475.332125" type="home"/>
 			<leg mode="pt"/>
			<act x="-4151086.894415" y="-578548.284105" type="home"/>
 		</plan>
	</person>

	<person id="nova-mossoro_alto-das-brisas_18" >
		<plan>
			<act end_time="18:00:00" x="-4155775.828369" y="-570475.332125" type="home"/>
 			<leg mode="pt"/>
			<act x="-4151086.894415" y="-578548.284105" type="home"/>
 		</plan>
	</person>

	<person id="nova-mossoro_alto-das-brisas_19" >
		<plan>
			<act end_time="19:00:00" x="-4155775.828369" y="-570475.332125" type="home"/>
 			<leg mode="pt"/>
			<act x="-4151086.894415" y="-578548.284105" type="home"/>
 		</plan>
	</person>

	<person id="nova-mossoro_alto-das-brisas_20" >
		<plan>
			<act end_time="20:00:00" x="-4155775.828369" y="-570475.332125" type="home"/>
 			<leg mode="pt"/>
			<act x="-4151086.894415" y="-578548.284105" type="home"/>
 		</plan>
	</person>

	<person id="nova-mossoro_alto-das-brisas_21" >
		<plan>
			<act end_time="21:00:00" x="-4155775.828369" y="-570475.332125" type="home"/>
 			<leg mode="pt"/>
			<act x="-4151086.894415" y="-578548.284105" type="home"/>
 		</plan>
	</person>

	<person id="nova-mossoro_alto-das-brisas_22" >
		<plan>
			<act end_time="22:00:00" x="-4155775.828369" y="-570475.332125" type="home"/>
 			<leg mode="pt"/>
			<act x="-4151086.894415" y="-578548.284105" type="home"/>
 		</plan>
	</person>

	<person id="nova-mossoro_alto-das-brisas_23" >
		<plan>
			<act end_time="23:00:00" x="-4155775.828369" y="-570475.332125" type="home"/>
 			<leg mode="pt"/>
			<act x="-4151086.894415" y="-578548.284105" type="home"/>
 		</plan>
	</person>

	<person id="nova-mossoro_odete-rosado_05" >
		<plan>
			<act end_time="5:00:00" x="-4155775.828369" y="-570475.332125" type="home"/>
 			<leg mode="pt"/>
			<act x="-4150529.142974" y="-582338.037939" type="home"/>
 		</plan>
	</person>

	<person id="nova-mossoro_odete-rosado_06" >
		<plan>
			<act end_time="6:00:00" x="-4155775.828369" y="-570475.332125" type="home"/>
 			<leg mode="pt"/>
			<act x="-4150529.142974" y="-582338.037939" type="home"/>
 		</plan>
	</person>

	<person id="nova-mossoro_odete-rosado_07" >
		<plan>
			<act end_time="7:00:00" x="-4155775.828369" y="-570475.332125" type="home"/>
 			<leg mode="pt"/>
			<act x="-4150529.142974" y="-582338.037939" type="home"/>
 		</plan>
	</person>

	<person id="nova-mossoro_odete-rosado_08" >
		<plan>
			<act end_time="8:00:00" x="-4155775.828369" y="-570475.332125" type="home"/>
 			<leg mode="pt"/>
			<act x="-4150529.142974" y="-582338.037939" type="home"/>
 		</plan>
	</person>

	<person id="nova-mossoro_odete-rosado_09" >
		<plan>
			<act end_time="9:00:00" x="-4155775.828369" y="-570475.332125" type="home"/>
 			<leg mode="pt"/>
			<act x="-4150529.142974" y="-582338.037939" type="home"/>
 		</plan>
	</person>

	<person id="nova-mossoro_odete-rosado_10" >
		<plan>
			<act end_time="10:00:00" x="-4155775.828369" y="-570475.332125" type="home"/>
 			<leg mode="pt"/>
			<act x="-4150529.142974" y="-582338.037939" type="home"/>
 		</plan>
	</person>

	<person id="nova-mossoro_odete-rosado_11" >
		<plan>
			<act end_time="11:00:00" x="-4155775.828369" y="-570475.332125" type="home"/>
 			<leg mode="pt"/>
			<act x="-4150529.142974" y="-582338.037939" type="home"/>
 		</plan>
	</person>

	<person id="nova-mossoro_odete-rosado_12" >
		<plan>
			<act end_time="12:00:00" x="-4155775.828369" y="-570475.332125" type="home"/>
 			<leg mode="pt"/>
			<act x="-4150529.142974" y="-582338.037939" type="home"/>
 		</plan>
	</person>

	<person id="nova-mossoro_odete-rosado_13" >
		<plan>
			<act end_time="13:00:00" x="-4155775.828369" y="-570475.332125" type="home"/>
 			<leg mode="pt"/>
			<act x="-4150529.142974" y="-582338.037939" type="home"/>
 		</plan>
	</person>

	<person id="nova-mossoro_odete-rosado_14" >
		<plan>
			<act end_time="14:00:00" x="-4155775.828369" y="-570475.332125" type="home"/>
 			<leg mode="pt"/>
			<act x="-4150529.142974" y="-582338.037939" type="home"/>
 		</plan>
	</person>

	<person id="nova-mossoro_odete-rosado_15" >
		<plan>
			<act end_time="15:00:00" x="-4155775.828369" y="-570475.332125" type="home"/>
 			<leg mode="pt"/>
			<act x="-4150529.142974" y="-582338.037939" type="home"/>
 		</plan>
	</person>

	<person id="nova-mossoro_odete-rosado_16" >
		<plan>
			<act end_time="16:00:00" x="-4155775.828369" y="-570475.332125" type="home"/>
 			<leg mode="pt"/>
			<act x="-4150529.142974" y="-582338.037939" type="home"/>
 		</plan>
	</person>

	<person id="nova-mossoro_odete-rosado_17" >
		<plan>
			<act end_time="17:00:00" x="-4155775.828369" y="-570475.332125" type="home"/>
 			<leg mode="pt"/>
			<act x="-4150529.142974" y="-582338.037939" type="home"/>
 		</plan>
	</person>

	<person id="nova-mossoro_odete-rosado_18" >
		<plan>
			<act end_time="18:00:00" x="-4155775.828369" y="-570475.332125" type="home"/>
 			<leg mode="pt"/>
			<act x="-4150529.142974" y="-582338.037939" type="home"/>
 		</plan>
	</person>

	<person id="nova-mossoro_odete-rosado_19" >
		<plan>
			<act end_time="19:00:00" x="-4155775.828369" y="-570475.332125" type="home"/>
 			<leg mode="pt"/>
			<act x="-4150529.142974" y="-582338.037939" type="home"/>
 		</plan>
	</person>

	<person id="nova-mossoro_odete-rosado_20" >
		<plan>
			<act end_time="20:00:00" x="-4155775.828369" y="-570475.332125" type="home"/>
 			<leg mode="pt"/>
			<act x="-4150529.142974" y="-582338.037939" type="home"/>
 		</plan>
	</person>

	<person id="nova-mossoro_odete-rosado_21" >
		<plan>
			<act end_time="21:00:00" x="-4155775.828369" y="-570475.332125" type="home"/>
 			<leg mode="pt"/>
			<act x="-4150529.142974" y="-582338.037939" type="home"/>
 		</plan>
	</person>

	<person id="nova-mossoro_odete-rosado_22" >
		<plan>
			<act end_time="22:00:00" x="-4155775.828369" y="-570475.332125" type="home"/>
 			<leg mode="pt"/>
			<act x="-4150529.142974" y="-582338.037939" type="home"/>
 		</plan>
	</person>

	<person id="nova-mossoro_odete-rosado_23" >
		<plan>
			<act end_time="23:00:00" x="-4155775.828369" y="-570475.332125" type="home"/>
 			<leg mode="pt"/>
			<act x="-4150529.142974" y="-582338.037939" type="home"/>
 		</plan>
	</person>

	<person id="nova-mossoro_nova-vida_05" >
		<plan>
			<act end_time="5:00:00" x="-4155775.828369" y="-570475.332125" type="home"/>
 			<leg mode="pt"/>
			<act x="-4153254.0036" y="-584200.145466" type="home"/>
 		</plan>
	</person>

	<person id="nova-mossoro_nova-vida_06" >
		<plan>
			<act end_time="6:00:00" x="-4155775.828369" y="-570475.332125" type="home"/>
 			<leg mode="pt"/>
			<act x="-4153254.0036" y="-584200.145466" type="home"/>
 		</plan>
	</person>

	<person id="nova-mossoro_nova-vida_07" >
		<plan>
			<act end_time="7:00:00" x="-4155775.828369" y="-570475.332125" type="home"/>
 			<leg mode="pt"/>
			<act x="-4153254.0036" y="-584200.145466" type="home"/>
 		</plan>
	</person>

	<person id="nova-mossoro_nova-vida_08" >
		<plan>
			<act end_time="8:00:00" x="-4155775.828369" y="-570475.332125" type="home"/>
 			<leg mode="pt"/>
			<act x="-4153254.0036" y="-584200.145466" type="home"/>
 		</plan>
	</person>

	<person id="nova-mossoro_nova-vida_09" >
		<plan>
			<act end_time="9:00:00" x="-4155775.828369" y="-570475.332125" type="home"/>
 			<leg mode="pt"/>
			<act x="-4153254.0036" y="-584200.145466" type="home"/>
 		</plan>
	</person>

	<person id="nova-mossoro_nova-vida_10" >
		<plan>
			<act end_time="10:00:00" x="-4155775.828369" y="-570475.332125" type="home"/>
 			<leg mode="pt"/>
			<act x="-4153254.0036" y="-584200.145466" type="home"/>
 		</plan>
	</person>

	<person id="nova-mossoro_nova-vida_11" >
		<plan>
			<act end_time="11:00:00" x="-4155775.828369" y="-570475.332125" type="home"/>
 			<leg mode="pt"/>
			<act x="-4153254.0036" y="-584200.145466" type="home"/>
 		</plan>
	</person>

	<person id="nova-mossoro_nova-vida_12" >
		<plan>
			<act end_time="12:00:00" x="-4155775.828369" y="-570475.332125" type="home"/>
 			<leg mode="pt"/>
			<act x="-4153254.0036" y="-584200.145466" type="home"/>
 		</plan>
	</person>

	<person id="nova-mossoro_nova-vida_13" >
		<plan>
			<act end_time="13:00:00" x="-4155775.828369" y="-570475.332125" type="home"/>
 			<leg mode="pt"/>
			<act x="-4153254.0036" y="-584200.145466" type="home"/>
 		</plan>
	</person>

	<person id="nova-mossoro_nova-vida_14" >
		<plan>
			<act end_time="14:00:00" x="-4155775.828369" y="-570475.332125" type="home"/>
 			<leg mode="pt"/>
			<act x="-4153254.0036" y="-584200.145466" type="home"/>
 		</plan>
	</person>

	<person id="nova-mossoro_nova-vida_15" >
		<plan>
			<act end_time="15:00:00" x="-4155775.828369" y="-570475.332125" type="home"/>
 			<leg mode="pt"/>
			<act x="-4153254.0036" y="-584200.145466" type="home"/>
 		</plan>
	</person>

	<person id="nova-mossoro_nova-vida_16" >
		<plan>
			<act end_time="16:00:00" x="-4155775.828369" y="-570475.332125" type="home"/>
 			<leg mode="pt"/>
			<act x="-4153254.0036" y="-584200.145466" type="home"/>
 		</plan>
	</person>

	<person id="nova-mossoro_nova-vida_17" >
		<plan>
			<act end_time="17:00:00" x="-4155775.828369" y="-570475.332125" type="home"/>
 			<leg mode="pt"/>
			<act x="-4153254.0036" y="-584200.145466" type="home"/>
 		</plan>
	</person>

	<person id="nova-mossoro_nova-vida_18" >
		<plan>
			<act end_time="18:00:00" x="-4155775.828369" y="-570475.332125" type="home"/>
 			<leg mode="pt"/>
			<act x="-4153254.0036" y="-584200.145466" type="home"/>
 		</plan>
	</person>

	<person id="nova-mossoro_nova-vida_19" >
		<plan>
			<act end_time="19:00:00" x="-4155775.828369" y="-570475.332125" type="home"/>
 			<leg mode="pt"/>
			<act x="-4153254.0036" y="-584200.145466" type="home"/>
 		</plan>
	</person>

	<person id="nova-mossoro_nova-vida_20" >
		<plan>
			<act end_time="20:00:00" x="-4155775.828369" y="-570475.332125" type="home"/>
 			<leg mode="pt"/>
			<act x="-4153254.0036" y="-584200.145466" type="home"/>
 		</plan>
	</person>

	<person id="nova-mossoro_nova-vida_21" >
		<plan>
			<act end_time="21:00:00" x="-4155775.828369" y="-570475.332125" type="home"/>
 			<leg mode="pt"/>
			<act x="-4153254.0036" y="-584200.145466" type="home"/>
 		</plan>
	</person>

	<person id="nova-mossoro_nova-vida_22" >
		<plan>
			<act end_time="22:00:00" x="-4155775.828369" y="-570475.332125" type="home"/>
 			<leg mode="pt"/>
			<act x="-4153254.0036" y="-584200.145466" type="home"/>
 		</plan>
	</person>

	<person id="nova-mossoro_nova-vida_23" >
		<plan>
			<act end_time="23:00:00" x="-4155775.828369" y="-570475.332125" type="home"/>
 			<leg mode="pt"/>
			<act x="-4153254.0036" y="-584200.145466" type="home"/>
 		</plan>
	</person>

	<person id="nova-mossoro_sumare_05" >
		<plan>
			<act end_time="5:00:00" x="-4155775.828369" y="-570475.332125" type="home"/>
 			<leg mode="pt"/>
			<act x="-4155353.334638" y="-584170.884416" type="home"/>
 		</plan>
	</person>

	<person id="nova-mossoro_sumare_06" >
		<plan>
			<act end_time="6:00:00" x="-4155775.828369" y="-570475.332125" type="home"/>
 			<leg mode="pt"/>
			<act x="-4155353.334638" y="-584170.884416" type="home"/>
 		</plan>
	</person>

	<person id="nova-mossoro_sumare_07" >
		<plan>
			<act end_time="7:00:00" x="-4155775.828369" y="-570475.332125" type="home"/>
 			<leg mode="pt"/>
			<act x="-4155353.334638" y="-584170.884416" type="home"/>
 		</plan>
	</person>

	<person id="nova-mossoro_sumare_08" >
		<plan>
			<act end_time="8:00:00" x="-4155775.828369" y="-570475.332125" type="home"/>
 			<leg mode="pt"/>
			<act x="-4155353.334638" y="-584170.884416" type="home"/>
 		</plan>
	</person>

	<person id="nova-mossoro_sumare_09" >
		<plan>
			<act end_time="9:00:00" x="-4155775.828369" y="-570475.332125" type="home"/>
 			<leg mode="pt"/>
			<act x="-4155353.334638" y="-584170.884416" type="home"/>
 		</plan>
	</person>

	<person id="nova-mossoro_sumare_10" >
		<plan>
			<act end_time="10:00:00" x="-4155775.828369" y="-570475.332125" type="home"/>
 			<leg mode="pt"/>
			<act x="-4155353.334638" y="-584170.884416" type="home"/>
 		</plan>
	</person>

	<person id="nova-mossoro_sumare_11" >
		<plan>
			<act end_time="11:00:00" x="-4155775.828369" y="-570475.332125" type="home"/>
 			<leg mode="pt"/>
			<act x="-4155353.334638" y="-584170.884416" type="home"/>
 		</plan>
	</person>

	<person id="nova-mossoro_sumare_12" >
		<plan>
			<act end_time="12:00:00" x="-4155775.828369" y="-570475.332125" type="home"/>
 			<leg mode="pt"/>
			<act x="-4155353.334638" y="-584170.884416" type="home"/>
 		</plan>
	</person>

	<person id="nova-mossoro_sumare_13" >
		<plan>
			<act end_time="13:00:00" x="-4155775.828369" y="-570475.332125" type="home"/>
 			<leg mode="pt"/>
			<act x="-4155353.334638" y="-584170.884416" type="home"/>
 		</plan>
	</person>

	<person id="nova-mossoro_sumare_14" >
		<plan>
			<act end_time="14:00:00" x="-4155775.828369" y="-570475.332125" type="home"/>
 			<leg mode="pt"/>
			<act x="-4155353.334638" y="-584170.884416" type="home"/>
 		</plan>
	</person>

	<person id="nova-mossoro_sumare_15" >
		<plan>
			<act end_time="15:00:00" x="-4155775.828369" y="-570475.332125" type="home"/>
 			<leg mode="pt"/>
			<act x="-4155353.334638" y="-584170.884416" type="home"/>
 		</plan>
	</person>

	<person id="nova-mossoro_sumare_16" >
		<plan>
			<act end_time="16:00:00" x="-4155775.828369" y="-570475.332125" type="home"/>
 			<leg mode="pt"/>
			<act x="-4155353.334638" y="-584170.884416" type="home"/>
 		</plan>
	</person>

	<person id="nova-mossoro_sumare_17" >
		<plan>
			<act end_time="17:00:00" x="-4155775.828369" y="-570475.332125" type="home"/>
 			<leg mode="pt"/>
			<act x="-4155353.334638" y="-584170.884416" type="home"/>
 		</plan>
	</person>

	<person id="nova-mossoro_sumare_18" >
		<plan>
			<act end_time="18:00:00" x="-4155775.828369" y="-570475.332125" type="home"/>
 			<leg mode="pt"/>
			<act x="-4155353.334638" y="-584170.884416" type="home"/>
 		</plan>
	</person>

	<person id="nova-mossoro_sumare_19" >
		<plan>
			<act end_time="19:00:00" x="-4155775.828369" y="-570475.332125" type="home"/>
 			<leg mode="pt"/>
			<act x="-4155353.334638" y="-584170.884416" type="home"/>
 		</plan>
	</person>

	<person id="nova-mossoro_sumare_20" >
		<plan>
			<act end_time="20:00:00" x="-4155775.828369" y="-570475.332125" type="home"/>
 			<leg mode="pt"/>
			<act x="-4155353.334638" y="-584170.884416" type="home"/>
 		</plan>
	</person>

	<person id="nova-mossoro_sumare_21" >
		<plan>
			<act end_time="21:00:00" x="-4155775.828369" y="-570475.332125" type="home"/>
 			<leg mode="pt"/>
			<act x="-4155353.334638" y="-584170.884416" type="home"/>
 		</plan>
	</person>

	<person id="nova-mossoro_sumare_22" >
		<plan>
			<act end_time="22:00:00" x="-4155775.828369" y="-570475.332125" type="home"/>
 			<leg mode="pt"/>
			<act x="-4155353.334638" y="-584170.884416" type="home"/>
 		</plan>
	</person>

	<person id="nova-mossoro_sumare_23" >
		<plan>
			<act end_time="23:00:00" x="-4155775.828369" y="-570475.332125" type="home"/>
 			<leg mode="pt"/>
			<act x="-4155353.334638" y="-584170.884416" type="home"/>
 		</plan>
	</person>

	<person id="nova-mossoro_cidade-oeste_05" >
		<plan>
			<act end_time="5:00:00" x="-4155775.828369" y="-570475.332125" type="home"/>
 			<leg mode="pt"/>
			<act x="-4162199.97244" y="-584408.481155" type="home"/>
 		</plan>
	</person>

	<person id="nova-mossoro_cidade-oeste_06" >
		<plan>
			<act end_time="6:00:00" x="-4155775.828369" y="-570475.332125" type="home"/>
 			<leg mode="pt"/>
			<act x="-4162199.97244" y="-584408.481155" type="home"/>
 		</plan>
	</person>

	<person id="nova-mossoro_cidade-oeste_07" >
		<plan>
			<act end_time="7:00:00" x="-4155775.828369" y="-570475.332125" type="home"/>
 			<leg mode="pt"/>
			<act x="-4162199.97244" y="-584408.481155" type="home"/>
 		</plan>
	</person>

	<person id="nova-mossoro_cidade-oeste_08" >
		<plan>
			<act end_time="8:00:00" x="-4155775.828369" y="-570475.332125" type="home"/>
 			<leg mode="pt"/>
			<act x="-4162199.97244" y="-584408.481155" type="home"/>
 		</plan>
	</person>

	<person id="nova-mossoro_cidade-oeste_09" >
		<plan>
			<act end_time="9:00:00" x="-4155775.828369" y="-570475.332125" type="home"/>
 			<leg mode="pt"/>
			<act x="-4162199.97244" y="-584408.481155" type="home"/>
 		</plan>
	</person>

	<person id="nova-mossoro_cidade-oeste_10" >
		<plan>
			<act end_time="10:00:00" x="-4155775.828369" y="-570475.332125" type="home"/>
 			<leg mode="pt"/>
			<act x="-4162199.97244" y="-584408.481155" type="home"/>
 		</plan>
	</person>

	<person id="nova-mossoro_cidade-oeste_11" >
		<plan>
			<act end_time="11:00:00" x="-4155775.828369" y="-570475.332125" type="home"/>
 			<leg mode="pt"/>
			<act x="-4162199.97244" y="-584408.481155" type="home"/>
 		</plan>
	</person>

	<person id="nova-mossoro_cidade-oeste_12" >
		<plan>
			<act end_time="12:00:00" x="-4155775.828369" y="-570475.332125" type="home"/>
 			<leg mode="pt"/>
			<act x="-4162199.97244" y="-584408.481155" type="home"/>
 		</plan>
	</person>

	<person id="nova-mossoro_cidade-oeste_13" >
		<plan>
			<act end_time="13:00:00" x="-4155775.828369" y="-570475.332125" type="home"/>
 			<leg mode="pt"/>
			<act x="-4162199.97244" y="-584408.481155" type="home"/>
 		</plan>
	</person>

	<person id="nova-mossoro_cidade-oeste_14" >
		<plan>
			<act end_time="14:00:00" x="-4155775.828369" y="-570475.332125" type="home"/>
 			<leg mode="pt"/>
			<act x="-4162199.97244" y="-584408.481155" type="home"/>
 		</plan>
	</person>

	<person id="nova-mossoro_cidade-oeste_15" >
		<plan>
			<act end_time="15:00:00" x="-4155775.828369" y="-570475.332125" type="home"/>
 			<leg mode="pt"/>
			<act x="-4162199.97244" y="-584408.481155" type="home"/>
 		</plan>
	</person>

	<person id="nova-mossoro_cidade-oeste_16" >
		<plan>
			<act end_time="16:00:00" x="-4155775.828369" y="-570475.332125" type="home"/>
 			<leg mode="pt"/>
			<act x="-4162199.97244" y="-584408.481155" type="home"/>
 		</plan>
	</person>

	<person id="nova-mossoro_cidade-oeste_17" >
		<plan>
			<act end_time="17:00:00" x="-4155775.828369" y="-570475.332125" type="home"/>
 			<leg mode="pt"/>
			<act x="-4162199.97244" y="-584408.481155" type="home"/>
 		</plan>
	</person>

	<person id="nova-mossoro_cidade-oeste_18" >
		<plan>
			<act end_time="18:00:00" x="-4155775.828369" y="-570475.332125" type="home"/>
 			<leg mode="pt"/>
			<act x="-4162199.97244" y="-584408.481155" type="home"/>
 		</plan>
	</person>

	<person id="nova-mossoro_cidade-oeste_19" >
		<plan>
			<act end_time="19:00:00" x="-4155775.828369" y="-570475.332125" type="home"/>
 			<leg mode="pt"/>
			<act x="-4162199.97244" y="-584408.481155" type="home"/>
 		</plan>
	</person>

	<person id="nova-mossoro_cidade-oeste_20" >
		<plan>
			<act end_time="20:00:00" x="-4155775.828369" y="-570475.332125" type="home"/>
 			<leg mode="pt"/>
			<act x="-4162199.97244" y="-584408.481155" type="home"/>
 		</plan>
	</person>

	<person id="nova-mossoro_cidade-oeste_21" >
		<plan>
			<act end_time="21:00:00" x="-4155775.828369" y="-570475.332125" type="home"/>
 			<leg mode="pt"/>
			<act x="-4162199.97244" y="-584408.481155" type="home"/>
 		</plan>
	</person>

	<person id="nova-mossoro_cidade-oeste_22" >
		<plan>
			<act end_time="22:00:00" x="-4155775.828369" y="-570475.332125" type="home"/>
 			<leg mode="pt"/>
			<act x="-4162199.97244" y="-584408.481155" type="home"/>
 		</plan>
	</person>

	<person id="nova-mossoro_cidade-oeste_23" >
		<plan>
			<act end_time="23:00:00" x="-4155775.828369" y="-570475.332125" type="home"/>
 			<leg mode="pt"/>
			<act x="-4162199.97244" y="-584408.481155" type="home"/>
 		</plan>
	</person>

	<person id="nova-mossoro_bom-pastor_05" >
		<plan>
			<act end_time="5:00:00" x="-4155775.828369" y="-570475.332125" type="home"/>
 			<leg mode="pt"/>
			<act x="-4161553.691394" y="-578962.716118" type="home"/>
 		</plan>
	</person>

	<person id="nova-mossoro_bom-pastor_06" >
		<plan>
			<act end_time="6:00:00" x="-4155775.828369" y="-570475.332125" type="home"/>
 			<leg mode="pt"/>
			<act x="-4161553.691394" y="-578962.716118" type="home"/>
 		</plan>
	</person>

	<person id="nova-mossoro_bom-pastor_07" >
		<plan>
			<act end_time="7:00:00" x="-4155775.828369" y="-570475.332125" type="home"/>
 			<leg mode="pt"/>
			<act x="-4161553.691394" y="-578962.716118" type="home"/>
 		</plan>
	</person>

	<person id="nova-mossoro_bom-pastor_08" >
		<plan>
			<act end_time="8:00:00" x="-4155775.828369" y="-570475.332125" type="home"/>
 			<leg mode="pt"/>
			<act x="-4161553.691394" y="-578962.716118" type="home"/>
 		</plan>
	</person>

	<person id="nova-mossoro_bom-pastor_09" >
		<plan>
			<act end_time="9:00:00" x="-4155775.828369" y="-570475.332125" type="home"/>
 			<leg mode="pt"/>
			<act x="-4161553.691394" y="-578962.716118" type="home"/>
 		</plan>
	</person>

	<person id="nova-mossoro_bom-pastor_10" >
		<plan>
			<act end_time="10:00:00" x="-4155775.828369" y="-570475.332125" type="home"/>
 			<leg mode="pt"/>
			<act x="-4161553.691394" y="-578962.716118" type="home"/>
 		</plan>
	</person>

	<person id="nova-mossoro_bom-pastor_11" >
		<plan>
			<act end_time="11:00:00" x="-4155775.828369" y="-570475.332125" type="home"/>
 			<leg mode="pt"/>
			<act x="-4161553.691394" y="-578962.716118" type="home"/>
 		</plan>
	</person>

	<person id="nova-mossoro_bom-pastor_12" >
		<plan>
			<act end_time="12:00:00" x="-4155775.828369" y="-570475.332125" type="home"/>
 			<leg mode="pt"/>
			<act x="-4161553.691394" y="-578962.716118" type="home"/>
 		</plan>
	</person>

	<person id="nova-mossoro_bom-pastor_13" >
		<plan>
			<act end_time="13:00:00" x="-4155775.828369" y="-570475.332125" type="home"/>
 			<leg mode="pt"/>
			<act x="-4161553.691394" y="-578962.716118" type="home"/>
 		</plan>
	</person>

	<person id="nova-mossoro_bom-pastor_14" >
		<plan>
			<act end_time="14:00:00" x="-4155775.828369" y="-570475.332125" type="home"/>
 			<leg mode="pt"/>
			<act x="-4161553.691394" y="-578962.716118" type="home"/>
 		</plan>
	</person>

	<person id="nova-mossoro_bom-pastor_15" >
		<plan>
			<act end_time="15:00:00" x="-4155775.828369" y="-570475.332125" type="home"/>
 			<leg mode="pt"/>
			<act x="-4161553.691394" y="-578962.716118" type="home"/>
 		</plan>
	</person>

	<person id="nova-mossoro_bom-pastor_16" >
		<plan>
			<act end_time="16:00:00" x="-4155775.828369" y="-570475.332125" type="home"/>
 			<leg mode="pt"/>
			<act x="-4161553.691394" y="-578962.716118" type="home"/>
 		</plan>
	</person>

	<person id="nova-mossoro_bom-pastor_17" >
		<plan>
			<act end_time="17:00:00" x="-4155775.828369" y="-570475.332125" type="home"/>
 			<leg mode="pt"/>
			<act x="-4161553.691394" y="-578962.716118" type="home"/>
 		</plan>
	</person>

	<person id="nova-mossoro_bom-pastor_18" >
		<plan>
			<act end_time="18:00:00" x="-4155775.828369" y="-570475.332125" type="home"/>
 			<leg mode="pt"/>
			<act x="-4161553.691394" y="-578962.716118" type="home"/>
 		</plan>
	</person>

	<person id="nova-mossoro_bom-pastor_19" >
		<plan>
			<act end_time="19:00:00" x="-4155775.828369" y="-570475.332125" type="home"/>
 			<leg mode="pt"/>
			<act x="-4161553.691394" y="-578962.716118" type="home"/>
 		</plan>
	</person>

	<person id="nova-mossoro_bom-pastor_20" >
		<plan>
			<act end_time="20:00:00" x="-4155775.828369" y="-570475.332125" type="home"/>
 			<leg mode="pt"/>
			<act x="-4161553.691394" y="-578962.716118" type="home"/>
 		</plan>
	</person>

	<person id="nova-mossoro_bom-pastor_21" >
		<plan>
			<act end_time="21:00:00" x="-4155775.828369" y="-570475.332125" type="home"/>
 			<leg mode="pt"/>
			<act x="-4161553.691394" y="-578962.716118" type="home"/>
 		</plan>
	</person>

	<person id="nova-mossoro_bom-pastor_22" >
		<plan>
			<act end_time="22:00:00" x="-4155775.828369" y="-570475.332125" type="home"/>
 			<leg mode="pt"/>
			<act x="-4161553.691394" y="-578962.716118" type="home"/>
 		</plan>
	</person>

	<person id="nova-mossoro_bom-pastor_23" >
		<plan>
			<act end_time="23:00:00" x="-4155775.828369" y="-570475.332125" type="home"/>
 			<leg mode="pt"/>
			<act x="-4161553.691394" y="-578962.716118" type="home"/>
 		</plan>
	</person>

	<person id="nova-mossoro_partage-shopping_05" >
		<plan>
			<act end_time="5:00:00" x="-4155775.828369" y="-570475.332125" type="home"/>
 			<leg mode="pt"/>
			<act x="-4160643.2241252107" y="-576411.0633567738" type="home"/>
 		</plan>
	</person>

	<person id="nova-mossoro_partage-shopping_06" >
		<plan>
			<act end_time="6:00:00" x="-4155775.828369" y="-570475.332125" type="home"/>
 			<leg mode="pt"/>
			<act x="-4160643.2241252107" y="-576411.0633567738" type="home"/>
 		</plan>
	</person>

	<person id="nova-mossoro_partage-shopping_07" >
		<plan>
			<act end_time="7:00:00" x="-4155775.828369" y="-570475.332125" type="home"/>
 			<leg mode="pt"/>
			<act x="-4160643.2241252107" y="-576411.0633567738" type="home"/>
 		</plan>
	</person>

	<person id="nova-mossoro_partage-shopping_08" >
		<plan>
			<act end_time="8:00:00" x="-4155775.828369" y="-570475.332125" type="home"/>
 			<leg mode="pt"/>
			<act x="-4160643.2241252107" y="-576411.0633567738" type="home"/>
 		</plan>
	</person>

	<person id="nova-mossoro_partage-shopping_09" >
		<plan>
			<act end_time="9:00:00" x="-4155775.828369" y="-570475.332125" type="home"/>
 			<leg mode="pt"/>
			<act x="-4160643.2241252107" y="-576411.0633567738" type="home"/>
 		</plan>
	</person>

	<person id="nova-mossoro_partage-shopping_10" >
		<plan>
			<act end_time="10:00:00" x="-4155775.828369" y="-570475.332125" type="home"/>
 			<leg mode="pt"/>
			<act x="-4160643.2241252107" y="-576411.0633567738" type="home"/>
 		</plan>
	</person>

	<person id="nova-mossoro_partage-shopping_11" >
		<plan>
			<act end_time="11:00:00" x="-4155775.828369" y="-570475.332125" type="home"/>
 			<leg mode="pt"/>
			<act x="-4160643.2241252107" y="-576411.0633567738" type="home"/>
 		</plan>
	</person>

	<person id="nova-mossoro_partage-shopping_12" >
		<plan>
			<act end_time="12:00:00" x="-4155775.828369" y="-570475.332125" type="home"/>
 			<leg mode="pt"/>
			<act x="-4160643.2241252107" y="-576411.0633567738" type="home"/>
 		</plan>
	</person>

	<person id="nova-mossoro_partage-shopping_13" >
		<plan>
			<act end_time="13:00:00" x="-4155775.828369" y="-570475.332125" type="home"/>
 			<leg mode="pt"/>
			<act x="-4160643.2241252107" y="-576411.0633567738" type="home"/>
 		</plan>
	</person>

	<person id="nova-mossoro_partage-shopping_14" >
		<plan>
			<act end_time="14:00:00" x="-4155775.828369" y="-570475.332125" type="home"/>
 			<leg mode="pt"/>
			<act x="-4160643.2241252107" y="-576411.0633567738" type="home"/>
 		</plan>
	</person>

	<person id="nova-mossoro_partage-shopping_15" >
		<plan>
			<act end_time="15:00:00" x="-4155775.828369" y="-570475.332125" type="home"/>
 			<leg mode="pt"/>
			<act x="-4160643.2241252107" y="-576411.0633567738" type="home"/>
 		</plan>