<?xml version="1.0" encoding="utf-8"?>
<!DOCTYPE plans SYSTEM "http://www.matsim.org/files/dtd/plans_v4.dtd">

<plans>

	<person id="pessoa0">
		<plan>
			<act end_time="06:58:09" x="-4151095" y="-578877" type="home"/>
			<leg mode="pt"/>
			<act end_time="20:58:09" x="-4155957" y="-575560" type="work"/>
			<leg mode="pt"/>
			<act x="-4151095" y="-578877" type="home"/>
		</plan>
	</person>

	<person id="pessoa1">
		<plan>
			<act end_time="13:56:31" x="-4156278" y="-581022" type="home"/>
			<leg mode="pt"/>
			<act end_time="21:56:31" x="-4151058" y="-579053" type="work"/>
			<leg mode="pt"/>
			<act x="-4156278" y="-581022" type="home"/>
		</plan>
	</person>

	<person id="pessoa2">
		<plan>
			<act end_time="11:57:08" x="-4154535" y="-582771" type="home"/>
			<leg mode="pt"/>
			<act end_time="22:57:08" x="-4154830" y="-583075" type="shop"/>
			<leg mode="pt"/>
			<act x="-4154535" y="-582771" type="home"/>
		</plan>
	</person>

	<person id="pessoa3">
		<plan>
			<act end_time="08:25:12" x="-4160573" y="-579957" type="home"/>
			<leg mode="pt"/>
			<act end_time="12:25:12" x="-4155055" y="-582295" type="shop"/>
			<leg mode="pt"/>
			<act end_time="18:25:12" x="-4152516" y="-577814" type="work"/>
			<leg mode="pt"/>
			<act x="-4160573" y="-579957" type="home"/>
		</plan>
	</person>

	<person id="pessoa4">
		<plan>
			<act end_time="06:44:41" x="-4153920" y="-580382" type="work"/>
			<leg mode="pt"/>
			<act end_time="22:44:41" x="-4160560" y="-571651" type="home"/>
			<leg mode="pt"/>
			<act x="-4153920" y="-580382" type="work"/>
		</plan>
	</person>

	<person id="pessoa5">
		<plan>
			<act end_time="12:20:26" x="-4160005" y="-580069" type="home"/>
			<leg mode="pt"/>
			<act end_time="20:20:26" x="-4152913" y="-584227" type="shop"/>
			<leg mode="pt"/>
			<act x="-4160005" y="-580069" type="home"/>
		</plan>
	</person>

	<person id="pessoa6">
		<plan>
			<act end_time="04:11:09" x="-4159462" y="-573031" type="work"/>
			<leg mode="pt"/>
			<act end_time="22:11:09" x="-4154631" y="-581076" type="home"/>
			<leg mode="pt"/>
			<act x="-4159462" y="-573031" type="work"/>
		</plan>
	</person>

	<person id="pessoa7">
		<plan>
			<act end_time="06:07:23" x="-4157167" y="-581020" type="work"/>
			<leg mode="pt"/>
			<act end_time="22:07:23" x="-4158514" y="-574427" type="home"/>
			<leg mode="pt"/>
			<act x="-4157167" y="-581020" type="work"/>
		</plan>
	</person>

	<person id="pessoa8">
		<plan>
			<act end_time="07:39:34" x="-4157649" y="-579523" type="home"/>
			<leg mode="pt"/>
			<act end_time="20:39:34" x="-4158432" y="-577532" type="work"/>
			<leg mode="pt"/>
			<act x="-4157649" y="-579523" type="home"/>
		</plan>
	</person>

	<person id="pessoa9">
		<plan>
			<act end_time="06:17:35" x="-4157058" y="-577918" type="home"/>
			<leg mode="pt"/>
			<act end_time="19:17:35" x="-4149625" y="-579456" type="work"/>
			<leg mode="pt"/>
			<act x="-4157058" y="-577918" type="home"/>
		</plan>
	</person>

	<person id="pessoa10">
		<plan>
			<act end_time="06:59:17" x="-4150229" y="-581780" type="work"/>
			<leg mode="pt"/>
			<act end_time="21:59:17" x="-4153850" y="-579684" type="home"/>
			<leg mode="pt"/>
			<act x="-4150229" y="-581780" type="work"/>
		</plan>
	</person>

	<person id="pessoa11">
		<plan>
			<act end_time="05:16:22" x="-4156581" y="-583942" type="work"/>
			<leg mode="pt"/>
			<act end_time="22:16:22" x="-4156004" y="-578151" type="home"/>
			<leg mode="pt"/>
			<act x="-4156581" y="-583942" type="work"/>
		</plan>
	</person>

	<person id="pessoa12">
		<plan>
			<act end_time="07:37:58" x="-4163058" y="-584128" type="home"/>
			<leg mode="pt"/>
			<act end_time="13:37:58" x="-4156174" y="-572174" type="work"/>
			<leg mode="pt"/>
			<act x="-4163058" y="-584128" type="home"/>
		</plan>
	</person>

	<person id="pessoa13">
		<plan>
			<act end_time="06:17:09" x="-4153821" y="-580542" type="work"/>
			<leg mode="pt"/>
			<act end_time="20:17:09" x="-4160779" y="-577363" type="home"/>
			<leg mode="pt"/>
			<act x="-4153821" y="-580542" type="work"/>
		</plan>
	</person>

	<person id="pessoa14">
		<plan>
			<act end_time="07:42:40" x="-4154726" y="-583313" type="work"/>
			<leg mode="pt"/>
			<act end_time="19:42:40" x="-4157352" y="-583070" type="home"/>
			<leg mode="pt"/>
			<act x="-4154726" y="-583313" type="work"/>
		</plan>
	</person>

	<person id="pessoa15">
		<plan>
			<act end_time="13:23:48" x="-4157666" y="-577607" type="home"/>
			<leg mode="pt"/>
			<act end_time="17:23:48" x="-4154342" y="-579871" type="shop"/>
			<leg mode="pt"/>
			<act x="-4157666" y="-577607" type="home"/>
		</plan>
	</person>

	<person id="pessoa16">
		<plan>
			<act end_time="08:55:03" x="-4160550" y="-579290" type="home"/>
			<leg mode="pt"/>
			<act end_time="11:55:03" x="-4151230" y="-579440" type="work"/>
			<leg mode="pt"/>
			<act x="-4160550" y="-579290" type="home"/>
		</plan>
	</person>

	<person id="pessoa17">
		<plan>
			<act end_time="06:48:13" x="-4153870" y="-580233" type="home"/>
			<leg mode="pt"/>
			<act end_time="12:48:13" x="-4155314" y="-583704" type="shop"/>
			<leg mode="pt"/>
			<act end_time="20:48:13" x="-4154662" y="-584354" type="work"/>
			<leg mode="pt"/>
			<act x="-4153870" y="-580233" type="home"/>
		</plan>
	</person>

	<person id="pessoa18">
		<plan>
			<act end_time="05:41:10" x="-4156174" y="-580907" type="home"/>
			<leg mode="pt"/>
			<act end_time="21:41:10" x="-4161048" y="-574380" type="shop"/>
			<leg mode="pt"/>
			<act x="-4156174" y="-580907" type="home"/>
		</plan>
	</person>

	<person id="pessoa19">
		<plan>
			<act end_time="06:19:47" x="-4152338" y="-578100" type="work"/>
			<leg mode="pt"/>
			<act end_time="17:19:47" x="-4161620" y="-584724" type="home"/>
			<leg mode="pt"/>
			<act x="-4152338" y="-578100" type="work"/>
		</plan>
	</person>

	<person id="pessoa20">
		<plan>
			<act end_time="13:16:42" x="-4157341" y="-579791" type="home"/>
			<leg mode="pt"/>
			<act end_time="18:16:42" x="-4158361" y="-579273" type="work"/>
			<leg mode="pt"/>
			<act x="-4157341" y="-579791" type="home"/>
		</plan>
	</person>

	<person id="pessoa21">
		<plan>
			<act end_time="05:24:13" x="-4156137" y="-580114" type="work"/>
			<leg mode="pt"/>
			<act end_time="20:24:13" x="-4156203" y="-576784" type="home"/>
			<leg mode="pt"/>
			<act x="-4156137" y="-580114" type="work"/>
		</plan>
	</person>

	<person id="pessoa22">
		<plan>
			<act end_time="07:48:15" x="-4162588" y="-580048" type="work"/>
			<leg mode="pt"/>
			<act end_time="22:48:15" x="-4162394" y="-587287" type="home"/>
			<leg mode="pt"/>
			<act x="-4162588" y="-580048" type="work"/>
		</plan>
	</person>

	<person id="pessoa23">
		<plan>
			<act end_time="14:14:40" x="-4162485" y="-584193" type="home"/>
			<leg mode="pt"/>
			<act end_time="18:14:40" x="-4164099" y="-586401" type="work"/>
			<leg mode="pt"/>
			<act x="-4162485" y="-584193" type="home"/>
		</plan>
	</person>

	<person id="pessoa24">
		<plan>
			<act end_time="04:45:55" x="-4155380" y="-581295" type="home"/>
			<leg mode="pt"/>
			<act end_time="18:45:55" x="-4156439" y="-581455" type="work"/>
			<leg mode="pt"/>
			<act x="-4155380" y="-581295" type="home"/>
		</plan>
	</person>

	<person id="pessoa25">
		<plan>
			<act end_time="05:51:40" x="-4161238" y="-578990" type="work"/>
			<leg mode="pt"/>
			<act end_time="17:51:40" x="-4150870" y="-582369" type="home"/>
			<leg mode="pt"/>
			<act x="-4161238" y="-578990" type="work"/>
		</plan>
	</person>

	<person id="pessoa26">
		<plan>
			<act end_time="04:04:37" x="-4163920" y="-586720" type="home"/>
			<leg mode="pt"/>
			<act end_time="12:04:37" x="-4159986" y="-579504" type="work"/>
			<leg mode="pt"/>
			<act x="-4163920" y="-586720" type="home"/>
		</plan>
	</person>

	<person id="pessoa27">
		<plan>
			<act end_time="12:55:35" x="-4152352" y="-578853" type="home"/>
			<leg mode="pt"/>
			<act end_time="17:55:35" x="-4159755" y="-577135" type="work"/>
			<leg mode="pt"/>
			<act x="-4152352" y="-578853" type="home"/>
		</plan>
	</person>

	<person id="pessoa28">
		<plan>
			<act end_time="08:45:09" x="-4156210" y="-580100" type="work"/>
			<leg mode="pt"/>
			<act end_time="19:45:09" x="-4152370" y="-580660" type="home"/>
			<leg mode="pt"/>
			<act x="-4156210" y="-580100" type="work"/>
		</plan>
	</person>

	<person id="pessoa29">
		<plan>
			<act end_time="07:37:41" x="-4159189" y="-575977" type="work"/>
			<leg mode="pt"/>
			<act end_time="18:37:41" x="-4152516" y="-580082" type="home"/>
			<leg mode="pt"/>
			<act x="-4159189" y="-575977" type="work"/>
		</plan>
	</person>

	<person id="pessoa30">
		<plan>
			<act end_time="06:59:28" x="-4159161" y="-574899" type="home"/>
			<leg mode="pt"/>
			<act end_time="19:59:28" x="-4150912" y="-582509" type="shop"/>
			<leg mode="pt"/>
			<act x="-4159161" y="-574899" type="home"/>
		</plan>
	</person>

	<person id="pessoa31">
		<plan>
			<act end_time="05:24:06" x="-4158229" y="-576193" type="work"/>
			<leg mode="pt"/>
			<act end_time="18:24:06" x="-4156631" y="-583475" type="home"/>
			<leg mode="pt"/>
			<act x="-4158229" y="-576193" type="work"/>
		</plan>
	</person>

	<person id="pessoa32">
		<plan>
			<act end_time="12:26:18" x="-4153890" y="-579864" type="home"/>
			<leg mode="pt"/>
			<act end_time="20:26:18" x="-4157848" y="-576703" type="work"/>
			<leg mode="pt"/>
			<act x="-4153890" y="-579864" type="home"/>
		</plan>
	</person>

	<person id="pessoa33">
		<plan>
			<act end_time="14:07:17" x="-4153921" y="-579770" type="home"/>
			<leg mode="pt"/>
			<act end_time="17:07:17" x="-4161773" y="-572140" type="work"/>
			<leg mode="pt"/>
			<act x="-4153921" y="-579770" type="home"/>
		</plan>
	</person>

	<person id="pessoa34">
		<plan>
			<act end_time="07:32:41" x="-4160056" y="-579828" type="home"/>
			<leg mode="pt"/>
			<act end_time="14:32:41" x="-4160273" y="-578284" type="work"/>
			<leg mode="pt"/>
			<act x="-4160056" y="-579828" type="home"/>
		</plan>
	</person>

	<person id="pessoa35">
		<plan>
			<act end_time="08:59:24" x="-4152847" y="-579518" type="work"/>
			<leg mode="pt"/>
			<act end_time="22:59:24" x="-4158494" y="-575876" type="home"/>
			<leg mode="pt"/>
			<act x="-4152847" y="-579518" type="work"/>
		</plan>
	</person>

	<person id="pessoa36">
		<plan>
			<act end_time="05:26:20" x="-4152463" y="-579079" type="home"/>
			<leg mode="pt"/>
			<act end_time="11:26:20" x="-4160349" y="-578032" type="work"/>
			<leg mode="pt"/>
			<act end_time="17:26:20" x="-4156655" y="-576221" type="shop"/>
			<leg mode="pt"/>
			<act x="-4152463" y="-579079" type="home"/>
		</plan>
	</person>

	<person id="pessoa37">
		<plan>
			<act end_time="04:33:59" x="-4163366" y="-584932" type="work"/>
			<leg mode="pt"/>
			<act end_time="19:33:59" x="-4158684" y="-577702" type="home"/>
			<leg mode="pt"/>
			<act x="-4163366" y="-584932" type="work"/>
		</plan>
	</person>

	<person id="pessoa38">
		<plan>
			<act end_time="11:08:22" x="-4158935" y="-574716" type="home"/>
			<leg mode="pt"/>
			<act end_time="20:08:22" x="-4154862" y="-580153" type="shop"/>
			<leg mode="pt"/>
			<act x="-4158935" y="-574716" type="home"/>
		</plan>
	</person>

	<person id="pessoa39">
		<plan>
			<act end_time="08:34:28" x="-4150774" y="-582526" type="home"/>
			<leg mode="pt"/>
			<act end_time="20:34:28" x="-4155221" y="-581141" type="work"/>
			<leg mode="pt"/>
			<act x="-4150774" y="-582526" type="home"/>
		</plan>
	</person>

	<person id="pessoa40">
		<plan>
			<act end_time="14:38:22" x="-4155060" y="-584372" type="home"/>
			<leg mode="pt"/>
			<act end_time="22:38:22" x="-4161465" y="-582382" type="work"/>
			<leg mode="pt"/>
			<act x="-4155060" y="-584372" type="home"/>
		</plan>
	</person>

	<person id="pessoa41">
		<plan>
			<act end_time="05:07:05" x="-4156816" y="-577678" type="home"/>
			<leg mode="pt"/>
			<act end_time="11:07:05" x="-4153710" y="-583494" type="shop"/>
			<leg mode="pt"/>
			<act x="-4156816" y="-577678" type="home"/>
		</plan>
	</person>

	<person id="pessoa42">
		<plan>
			<act end_time="07:34:10" x="-4152464" y="-584816" type="work"/>
			<leg mode="pt"/>
			<act end_time="19:34:10" x="-4151732" y="-579228" type="home"/>
			<leg mode="pt"/>
			<act x="-4152464" y="-584816" type="work"/>
		</plan>
	</person>

	<person id="pessoa43">
		<plan>
			<act end_time="06:57:10" x="-4155293" y="-583429" type="home"/>
			<leg mode="pt"/>
			<act end_time="12:57:10" x="-4159326" y="-572793" type="shop"/>
			<leg mode="pt"/>
			<act x="-4155293" y="-583429" type="home"/>
		</plan>
	</person>

	<person id="pessoa44">
		<plan>
			<act end_time="08:22:15" x="-4156174" y="-580393" type="work"/>
			<leg mode="pt"/>
			<act end_time="19:22:15" x="-4156489" y="-577543" type="home"/>
			<leg mode="pt"/>
			<act x="-4156174" y="-580393" type="work"/>
		</plan>
	</person>

	<person id="pessoa45">
		<plan>
			<act end_time="08:52:37" x="-4159178" y="-573114" type="home"/>
			<leg mode="pt"/>
			<act end_time="11:52:37" x="-4156060" y="-584395" type="work"/>
			<leg mode="pt"/>
			<act x="-4159178" y="-573114" type="home"/>
		</plan>
	</person>

	<person id="pessoa46">
		<plan>
			<act end_time="04:42:10" x="-4154650" y="-584557" type="work"/>
			<leg mode="pt"/>
			<act end_time="21:42:10" x="-4161018" y="-571718" type="home"/>
			<leg mode="pt"/>
			<act x="-4154650" y="-584557" type="work"/>
		</plan>
	</person>

	<person id="pessoa47">
		<plan>
			<act end_time="14:03:29" x="-4151717" y="-581740" type="home"/>
			<leg mode="pt"/>
			<act end_time="20:03:29" x="-4155174" y="-581877" type="work"/>
			<leg mode="pt"/>
			<act x="-4151717" y="-581740" type="home"/>
		</plan>
	</person>

	<person id="pessoa48">
		<plan>
			<act end_time="04:41:44" x="-4156257" y="-583605" type="work"/>
			<leg mode="pt"/>
			<act end_time="20:41:44" x="-4159766" y="-572936" type="home"/>
			<leg mode="pt"/>
			<act x="-4156257" y="-583605" type="work"/>
		</plan>
	</person>

	<person id="pessoa49">
		<plan>
			<act end_time="13:17:25" x="-4158754" y="-573962" type="home"/>
			<leg mode="pt"/>
			<act end_time="21:17:25" x="-4156723" y="-579268" type="work"/>
			<leg mode="pt"/>
			<act x="-4158754" y="-573962" type="home"/>
		</plan>
	</person>

	<person id="pessoa50">
		<plan>
			<act end_time="04:46:26" x="-4157569" y="-581684" type="work"/>
			<leg mode="pt"/>
			<act end_time="18:46:26" x="-4155573" y="-581079" type="home"/>
			<leg mode="pt"/>
			<act x="-4157569" y="-581684" type="work"/>
		</plan>
	</person>

	<person id="pessoa51">
		<plan>
			<act end_time="07:37:48" x="-4160480" y="-570920" type="work"/>
			<leg mode="pt"/>
			<act end_time="17:37:48" x="-4163996" y="-577230" type="home"/>
			<leg mode="pt"/>
			<act x="-4160480" y="-570920" type="work"/>
		</plan>
	</person>

	<person id="pessoa52">
		<plan>
			<act end_time="05:06:37" x="-4162598" y="-585100" type="work"/>
			<leg mode="pt"/>
			<act end_time="20:06:37" x="-4153071" y="-577448" type="home"/>
			<leg mode="pt"/>
			<act x="-4162598" y="-585100" type="work"/>
		</plan>
	</person>

	<person id="pessoa53">
		<plan>
			<act end_time="14:04:06" x="-4156988" y="-577819" type="home"/>
			<leg mode="pt"/>
			<act end_time="20:04:06" x="-4161464" y="-572140" type="shop"/>
			<leg mode="pt"/>
			<act x="-4156988" y="-577819" type="home"/>
		</plan>
	</person>

	<person id="pessoa54">
		<plan>
			<act end_time="04:30:01" x="-4152362" y="-581274" type="home"/>
			<leg mode="pt"/>
			<act end_time="11:30:01" x="-4151556" y="-581970" type="work"/>
			<leg mode="pt"/>
			<act x="-4152362" y="-581274" type="home"/>
		</plan>
	</person>

	<person id="pessoa55">
		<plan>
			<act end_time="12:46:09" x="-4163537" y="-586639" type="home"/>
			<leg mode="pt"/>
			<act end_time="22:46:09" x="-4161036" y="-578548" type="work"/>
			<leg mode="pt"/>
			<act x="-4163537" y="-586639" type="home"/>
		</plan>
	</person>

	<person id="pessoa56">
		<plan>
			<act end_time="07:54:58" x="-4162801" y="-586871" type="home"/>
			<leg mode="pt"/>
			<act end_time="11:54:58" x="-4149571" y="-579702" type="work"/>
			<leg mode="pt"/>
			<act end_time="17:54:58" x="-4158890" y="-580781" type="shop"/>
			<leg mode="pt"/>
			<act x="-4162801" y="-586871" type="home"/>
		</plan>
	</person>

	<person id="pessoa57">
		<plan>
			<act end_time="07:34:24" x="-4152547" y="-578262" type="home"/>
			<leg mode="pt"/>
			<act end_time="11:34:24" x="-4154560" y="-584122" type="work"/>
			<leg mode="pt"/>
			<act x="-4152547" y="-578262" type="home"/>
		</plan>
	</person>

	<person id="pessoa58">
		<plan>
			<act end_time="07:17:59" x="-4162146" y="-584375" type="work"/>
			<leg mode="pt"/>
			<act end_time="21:17:59" x="-4157971" y="-572882" type="home"/>
			<leg mode="pt"/>
			<act x="-4162146" y="-584375" type="work"/>
		</plan>
	</person>

	<person id="pessoa59">
		<plan>
			<act end_time="13:45:20" x="-4159851" y="-579779" type="home"/>
			<leg mode="pt"/>
			<act end_time="22:45:20" x="-4151895" y="-579092" type="work"/>
			<leg mode="pt"/>
			<act x="-4159851" y="-579779" type="home"/>
		</plan>
	</person>

	<person id="pessoa60">
		<plan>
			<act end_time="04:41:35" x="-4154028" y="-580542" type="home"/>
			<leg mode="pt"/>
			<act end_time="12:41:35" x="-4153992" y="-581961" type="work"/>
			<leg mode="pt"/>
			<act x="-4154028" y="-580542" type="home"/>
		</plan>
	</person>

	<person id="pessoa61">
		<plan>
			<act end_time="06:25:43" x="-4151421" y="-578408" type="home"/>
			<leg mode="pt"/>
			<act end_time="11:25:43" x="-4154730" y="-582987" type="shop"/>
			<leg mode="pt"/>
			<act end_time="18:25:43" x="-4152972" y="-579401" type="work"/>
			<leg mode="pt"/>
			<act x="-4151421" y="-578408" type="home"/>
		</plan>
	</person>

	<person id="pessoa62">
		<plan>
			<act end_time="08:13:56" x="-4162923" y="-586933" type="work"/>
			<leg mode="pt"/>
			<act end_time="22:13:56" x="-4158750" y="-574421" type="home"/>
			<leg mode="pt"/>
			<act x="-4162923" y="-586933" type="work"/>
		</plan>
	</person>

	<person id="pessoa63">
		<plan>
			<act end_time="13:26:54" x="-4153846" y="-579718" type="home"/>
			<leg mode="pt"/>
			<act end_time="18:26:54" x="-4160602" y="-578107" type="shop"/>
			<leg mode="pt"/>
			<act x="-4153846" y="-579718" type="home"/>
		</plan>
	</person>

	<person id="pessoa64">
		<plan>
			<act end_time="05:41:19" x="-4157430" y="-577369" type="home"/>
			<leg mode="pt"/>
			<act end_time="20:41:19" x="-4151587" y="-580597" type="work"/>
			<leg mode="pt"/>
			<act x="-4157430" y="-577369" type="home"/>
		</plan>
	</person>

	<person id="pessoa65">
		<plan>
			<act end_time="07:21:30" x="-4155393" y="-584494" type="home"/>
			<leg mode="pt"/>
			<act end_time="11:21:30" x="-4158987" y="-574284" type="shop"/>
			<leg mode="pt"/>
			<act end_time="18:21:30" x="-4150684" y="-582725" type="work"/>
			<leg mode="pt"/>
			<act x="-4155393" y="-584494" type="home"/>
		</plan>
	</person>

	<person id="pessoa66">
		<plan>
			<act end_time="11:45:14" x="-4159662" y="-578323" type="home"/>
			<leg mode="pt"/>
			<act end_time="19:45:14" x="-4156939" y="-581003" type="work"/>
			<leg mode="pt"/>
			<act x="-4159662" y="-578323" type="home"/>
		</plan>
	</person>

	<person id="pessoa67">
		<plan>
			<act end_time="13:17:21" x="-4152175" y="-580883" type="home"/>
			<leg mode="pt"/>
			<act end_time="18:17:21" x="-4155884" y="-580534" type="work"/>
			<leg mode="pt"/>
			<act x="-4152175" y="-580883" type="home"/>
		</plan>
	</person>

	<person id="pessoa68">
		<plan>
			<act end_time="04:30:03" x="-4155790" y="-579895" type="home"/>
			<leg mode="pt"/>
			<act end_time="12:30:03" x="-4149984" y="-579194" type="work"/>
			<leg mode="pt"/>
			<act x="-4155790" y="-579895" type="home"/>
		</plan>
	</person>

	<person id="pessoa69">
		<plan>
			<act end_time="14:55:09" x="-4158090" y="-583786" type="home"/>
			<leg mode="pt"/>
			<act end_time="22:55:09" x="-4153879" y="-583418" type="work"/>
			<leg mode="pt"/>
			<act x="-4158090" y="-583786" type="home"/>
		</plan>
	</person>

	<person id="pessoa70">
		<plan>
			<act end_time="04:16:37" x="-4158076" y="-582694" type="work"/>
			<leg mode="pt"/>
			<act end_time="18:16:37" x="-4152070" y="-579989" type="home"/>
			<leg mode="pt"/>
			<act x="-4158076" y="-582694" type="work"/>
		</plan>
	</person>

	<person id="pessoa71">
		<plan>
			<act end_time="13:11:44" x="-4157347" y="-579252" type="home"/>
			<leg mode="pt"/>
			<act end_time="19:11:44" x="-4159162" y="-578637" type="shop"/>
			<leg mode="pt"/>
			<act x="-4157347" y="-579252" type="home"/>
		</plan>
	</person>

	<person id="pessoa72">
		<plan>
			<act end_time="05:51:39" x="-4157799" y="-579035" type="work"/>
			<leg mode="pt"/>
			<act end_time="17:51:39" x="-4155441" y="-570677" type="home"/>
			<leg mode="pt"/>
			<act x="-4157799" y="-579035" type="work"/>
		</plan>
	</person>

	<person id="pessoa73">
		<plan>
			<act end_time="08:57:58" x="-4156636" y="-581645" type="work"/>
			<leg mode="pt"/>
			<act end_time="21:57:58" x="-4158723" y="-574667" type="home"/>
			<leg mode="pt"/>
			<act x="-4156636" y="-581645" type="work"/>
		</plan>
	</person>

	<person id="pessoa74">
		<plan>
			<act end_time="14:56:51" x="-4159653" y="-577372" type="home"/>
			<leg mode="pt"/>
			<act end_time="17:56:51" x="-4159776" y="-577883" type="shop"/>
			<leg mode="pt"/>
			<act x="-4159653" y="-577372" type="home"/>
		</plan>
	</person>

	<person id="pessoa75">
		<plan>
			<act end_time="04:12:42" x="-4152071" y="-579965" type="work"/>
			<leg mode="pt"/>
			<act end_time="17:12:42" x="-4154868" y="-571280" type="home"/>
			<leg mode="pt"/>
			<act x="-4152071" y="-579965" type="work"/>
		</plan>
	</person>

	<person id="pessoa76">
		<plan>
			<act end_time="04:56:45" x="-4161358" y="-584672" type="home"/>
			<leg mode="pt"/>
			<act end_time="12:56:45" x="-4151063" y="-578770" type="shop"/>
			<leg mode="pt"/>
			<act x="-4161358" y="-584672" type="home"/>
		</plan>
	</person>

	<person id="pessoa77">
		<plan>
			<act end_time="07:10:41" x="-4151794" y="-580155" type="home"/>
			<leg mode="pt"/>
			<act end_time="13:10:41" x="-4159282" y="-577022" type="shop"/>
			<leg mode="pt"/>
			<act end_time="21:10:41" x="-4153407" y="-580388" type="work"/>
			<leg mode="pt"/>
			<act x="-4151794" y="-580155" type="home"/>
		</plan>
	</person>

	<person id="pessoa78">
		<plan>
			<act end_time="04:36:57" x="-4160467" y="-578368" type="work"/>
			<leg mode="pt"/>
			<act end_time="19:36:57" x="-4156189" y="-576203" type="home"/>
			<leg mode="pt"/>
			<act x="-4160467" y="-578368" type="work"/>
		</plan>
	</person>

	<person id="pessoa79">
		<plan>
			<act end_time="08:15:28" x="-4152358" y="-580847" type="work"/>
			<leg mode="pt"/>
			<act end_time="17:15:28" x="-4154175" y="-583982" type="home"/>
			<leg mode="pt"/>
			<act x="-4152358" y="-580847" type="work"/>
		</plan>
	</person>

	<person id="pessoa80">
		<plan>
			<act end_time="05:20:20" x="-4160706" y="-579938" type="home"/>
			<leg mode="pt"/>
			<act end_time="14:20:20" x="-4158683" y="-577597" type="work"/>
			<leg mode="pt"/>
			<act x="-4160706" y="-579938" type="home"/>
		</plan>
	</person>

	<person id="pessoa81">
		<plan>
			<act end_time="08:15:03" x="-4156149" y="-580742" type="home"/>
			<leg mode="pt"/>
			<act end_time="14:15:03" x="-4155777" y="-584471" type="work"/>
			<leg mode="pt"/>
			<act x="-4156149" y="-580742" type="home"/>
		</plan>
	</person>

	<person id="pessoa82">
		<plan>
			<act end_time="05:04:51" x="-4158543" y="-573045" type="work"/>
			<leg mode="pt"/>
			<act end_time="19:04:51" x="-4153359" y="-578082" type="home"/>
			<leg mode="pt"/>
			<act x="-4158543" y="-573045" type="work"/>
		</plan>
	</person>

	<person id="pessoa83">
		<plan>
			<act end_time="07:25:02" x="-4155799" y="-580207" type="home"/>
			<leg mode="pt"/>
			<act end_time="17:25:02" x="-4155281" y="-570760" type="work"/>
			<leg mode="pt"/>
			<act x="-4155799" y="-580207" type="home"/>
		</plan>
	</person>

	<person id="pessoa84">
		<plan>
			<act end_time="05:18:05" x="-4159407" y="-573726" type="home"/>
			<leg mode="pt"/>
			<act end_time="14:18:05" x="-4156930" y="-573570" type="work"/>
			<leg mode="pt"/>
			<act x="-4159407" y="-573726" type="home"/>
		</plan>
	</person>

	<person id="pessoa85">
		<plan>
			<act end_time="12:39:21" x="-4160421" y="-577121" type="home"/>
			<leg mode="pt"/>
			<act end_time="21:39:21" x="-4153434" y="-578402" type="shop"/>
			<leg mode="pt"/>
			<act x="-4160421" y="-577121" type="home"/>
		</plan>
	</person>

	<person id="pessoa86">
		<plan>
			<act end_time="14:22:36" x="-4163118" y="-584060" type="home"/>
			<leg mode="pt"/>
			<act end_time="21:22:36" x="-4159673" y="-573598" type="work"/>
			<leg mode="pt"/>
			<act x="-4163118" y="-584060" type="home"/>
		</plan>
	</person>

	<person id="pessoa87">
		<plan>
			<act end_time="04:38:41" x="-4156761" y="-578239" type="home"/>
			<leg mode="pt"/>
			<act end_time="12:38:41" x="-4159290" y="-580525" type="work"/>
			<leg mode="pt"/>
			<act end_time="20:38:41" x="-4155747" y="-582936" type="shop"/>
			<leg mode="pt"/>
			<act x="-4156761" y="-578239" type="home"/>
		</plan>
	</person>

	<person id="pessoa88">
		<plan>
			<act end_time="07:50:58" x="-4156194" y="-575554" type="work"/>
			<leg mode="pt"/>
			<act end_time="21:50:58" x="-4155465" y="-580845" type="home"/>
			<leg mode="pt"/>
			<act x="-4156194" y="-575554" type="work"/>
		</plan>
	</person>

	<person id="pessoa89">
		<plan>
			<act end_time="08:38:17" x="-4150844" y="-578932" type="work"/>
			<leg mode="pt"/>
			<act end_time="20:38:17" x="-4158759" y="-572834" type="home"/>
			<leg mode="pt"/>
			<act x="-4150844" y="-578932" type="work"/>
		</plan>
	</person>

	<person id="pessoa90">
		<plan>
			<act end_time="12:54:46" x="-4162758" y="-587047" type="home"/>
			<leg mode="pt"/>
			<act end_time="21:54:46" x="-4156731" y="-570194" type="work"/>
			<leg mode="pt"/>
			<act x="-4162758" y="-587047" type="home"/>
		</plan>
	</person>

	<person id="pessoa91">
		<plan>
			<act end_time="08:01:26" x="-4157403" y="-578416" type="work"/>
			<leg mode="pt"/>
			<act end_time="17:01:26" x="-4155654" y="-575908" type="home"/>
			<leg mode="pt"/>
			<act x="-4157403" y="-578416" type="work"/>
		</plan>
	</person>

	<person id="pessoa92">
		<plan>
			<act end_time="08:12:34" x="-4160640" y="-579316" type="home"/>
			<leg mode="pt"/>
			<act end_time="14:12:34" x="-4156012" y="-570274" type="shop"/>
			<leg mode="pt"/>
			<act x="-4160640" y="-579316" type="home"/>
		</plan>
	</person>

	<person id="pessoa93">
		<plan>
			<act end_time="04:22:59" x="-4158980" y="-574733" type="work"/>
			<leg mode="pt"/>
			<act end_time="22:22:59" x="-4152612" y="-578275" type="home"/>
			<leg mode="pt"/>
			<act x="-4158980" y="-574733" type="work"/>
		</plan>
	</person>

	<person id="pessoa94">
		<plan>
			<act end_time="04:41:50" x="-4153536" y="-580890" type="home"/>
			<leg mode="pt"/>
			<act end_time="14:41:50" x="-4155757" y="-576109" type="work"/>
			<leg mode="pt"/>
			<act x="-4153536" y="-580890" type="home"/>
		</plan>
	</person>

	<person id="pessoa95">
		<plan>
			<act end_time="05:02:10" x="-4161810" y="-585286" type="work"/>
			<leg mode="pt"/>
			<act end_time="19:02:10" x="-4154983" y="-582730" type="home"/>
			<leg mode="pt"/>
			<act x="-4161810" y="-585286" type="work"/>
		</plan>
	</person>

	<person id="pessoa96">
		<plan>
			<act end_time="05:27:39" x="-4154875" y="-585732" type="home"/>
			<leg mode="pt"/>
			<act end_time="19:27:39" x="-4159867" y="-573064" type="work"/>
			<leg mode="pt"/>
			<act x="-4154875" y="-585732" type="home"/>
		</plan>
	</person>

	<person id="pessoa97">
		<plan>
			<act end_time="06:54:10" x="-4156273" y="-580179" type="work"/>
			<leg mode="pt"/>
			<act end_time="17:54:10" x="-4157264" y="-579136" type="home"/>
			<leg mode="pt"/>
			<act x="-4156273" y="-580179" type="work"/>
		</plan>
	</person>

	<person id="pessoa98">
		<plan>
			<act end_time="13:41:15" x="-4155355" y="-570474" type="home"/>
			<leg mode="pt"/>
			<act end_time="19:41:15" x="-4158687" y="-574444" type="work"/>
			<leg mode="pt"/>
			<act x="-4155355" y="-570474" type="home"/>
		</plan>
	</person>

	<person id="pessoa99">
		<plan>
			<act end_time="06:01:21" x="-4151868" y="-578224" type="home"/>
			<leg mode="pt"/>
			<act end_time="11:01:21" x="-4159317" y="-574050" type="shop"/>
			<leg mode="pt"/>
			<act x="-4151868" y="-578224" type="home"/>
		</plan>
	</person>

	<person id="pessoa100">
		<plan>
			<act end_time="06:47:35" x="-4156476" y="-581555" type="home"/>
			<leg mode="pt"/>
			<act end_time="20:47:35" x="-4157065" y="-581969" type="work"/>
			<leg mode="pt"/>
			<act x="-4156476" y="-581555" type="home"/>
		</plan>
	</person>

	<person id="pessoa101">
		<plan>
			<act end_time="14:57:09" x="-4153204" y="-579993" type="home"/>
			<leg mode="pt"/>
			<act end_time="18:57:09" x="-4160519" y="-579096" type="work"/>
			<leg mode="pt"/>
			<act x="-4153204" y="-579993" type="home"/>
		</plan>
	</person>

	<person id="pessoa102">
		<plan>
			<act end_time="11:08:21" x="-4153463" y="-577907" type="home"/>
			<leg mode="pt"/>
			<act end_time="22:08:21" x="-4155159" y="-580696" type="shop"/>
			<leg mode="pt"/>
			<act x="-4153463" y="-577907" type="home"/>
		</plan>
	</person>

	<person id="pessoa103">
		<plan>
			<act end_time="11:49:08" x="-4152828" y="-580008" type="home"/>
			<leg mode="pt"/>
			<act end_time="18:49:08" x="-4153365" y="-581552" type="shop"/>
			<leg mode="pt"/>
			<act x="-4152828" y="-580008" type="home"/>
		</plan>
	</person>

	<person id="pessoa104">
		<plan>
			<act end_time="08:08:42" x="-4158677" y="-578957" type="work"/>
			<leg mode="pt"/>
			<act end_time="17:08:42" x="-4154589" y="-581995" type="home"/>
			<leg mode="pt"/>
			<act x="-4158677" y="-578957" type="work"/>
		</plan>
	</person>

	<person id="pessoa105">
		<plan>
			<act end_time="04:11:23" x="-4152817" y="-584210" type="work"/>
			<leg mode="pt"/>
			<act end_time="21:11:23" x="-4155278" y="-575562" type="home"/>
			<leg mode="pt"/>